<?xml version="1.0" encoding="UTF-8"?>

<!-- generated on 03/12/13 01:43:50 by SUMO netconvert Version 0.16.0
<?xml version="1.0" encoding="UTF-8"?>

<configuration xmlns:xsi="http://www.w3.org/2001/XMLSchema-instance" xsi:noNamespaceSchemaLocation="http://sumo.sf.net/xsd/netconvertConfiguration.xsd">

    <input>
        <sumo-net-file value="G:\Kings\OSTGui\output\0.3060871185570725osm.net.xml"/>
    </input>

    <output>
        <output-file value="G:\Kings\OSTGui\output\0.3060871185570725osm.net.xml"/>
    </output>

    <tls_building>
        <tls.set value=":367735523_10_0,25257052,25472803,1611125259,:1230997445_17_0,:496812960_10_0,:1684410132_11_0,25257054,1246686376,1089052862,742961500,:25473409_9_0,:1684410087_7_0,742961612,1684410149,:9791492_8_0,:108055_23_0,1611125269,:1684410141_6_0,:333722489_12_0,591983334,496812960,:108072_14_0,:25256615_10_0,25473293,255576,466926159,1174906999,1685938596,63774226,:108072_15_0,2047806102,:2121773745_5_0,25529871,:25495441_7_0,452236343,:25472756_11_0,1685751735,25497435,:369977345_9_0,9521022,25473286,:1947324470_15_0,2047806092,:25257029_4_0,:25256616_9_0,:25257026_10_0,:452589687_4_0,2047806106,25256891,:367735523_11_0,:25529871_11_0,1685751696,1684410049,1493424684,:21665927_5_0,1611125318,25502540,108256,742961463,:452206747_5_0,:701600720_5_0,:21665926_10_0,21665945,21666019,108224,:1684410036_5_0,333722489,:25257041_10_0,1684410069,1138970672,108251,385562683,1684410052,:21665586_11_0,:25495421_8_0,:9521011_16_0,:1947324470_17_0,25501016,21665964,:21665934_19_0,25472678,2121773751,9512928,:1684410081_4_0,1493424661,:25256836_4_0,:771982865_11_0,1947324491,1121435499,:25501289_9_0,25501328,1684410082,:108062_17_0,466926176,1685751697,1667203523,1684410084,367735523,1637478252,:701600743_18_0,1256509269,25503804,:25501289_10_0,25472808,:9521029_11_0,:1667203523_2_0,1762567320,:25498602_12_0,:25473293_6_0,:742961586_5_0,:1668872283_16_0,:25256615_9_0,25532323,:918548280_5_0,1684410079,107339,:1684410036_4_0,:1122297467_4_0,503556876,25495423,1122297465,21665929,742961543,1668872283,:503555948_11_0,:1666324108_6_0,:333722489_11_0,:21665934_16_0,108072,1685751726,:25529871_9_0,:691084080_11_0,:25473399_8_0,:255562_13_0,:771982848_4_0,:271949991_13_0,1493328983,503555948,466926156,:333722489_13_0,1684410054,503556078,1188939751,:82710880_9_0,466926155,25257053,1611125276,:108055_19_0,466926175,:25257029_5_0,:735142648_5_0,:102005_11_0,348875443,:1666324146_18_0,:771982929_11_0,:197697_11_0,:452236138_4_0,1684410086,1667203520,:21666010_4_0,:25501330_7_0,26845546,25501064,:25257026_11_0,:108250_11_0,:21665934_17_0,:108236_10_0,25256949,:107322_3_0,:25257046_8_0,1611125379,:1684410052_9_0,:25501330_8_0,:26845546_9_0,1684410058,806821401,1684410144,1684410142,:742961631_4_0,1230997264,:2121773745_4_0,:1089052864_12_0,:1667203491_13_0,771982865,:1668872310_18_0,:9791491_27_0,:25473073_5_0,:742961445_4_0,:1684410132_10_0,1684410131,:1122297465_4_0,25473371,1684410034,:701600720_4_0,:1684410149_6_0,:1330788638_10_0,742961437,:742961586_4_0,25473398,:771982929_9_0,:25256612_11_0,1684410147,108255,26845543,:21665586_12_0,25256620,:1684410122_6_0,:1667203485_10_0,:383974165_4_0,1122297467,:1684410149_7_0,1256509270,:21665586_13_0,:1684410050_10_0,25473556,25501330,:25500758_2_0,255578,:255562_11_0,9512930,1637478253,452219937,:108055_24_0,:25473408_9_0,:1246686376_16_0,452236138,:197697_12_0,25501320,466926153,25501940,:452589683_11_0,:1330788638_9_0,:9791491_28_0,25495421,:60590173_5_0,:25473409_10_0,:25532218_11_0,772092086,26652362,1230997389,452231928,:255562_10_0,26866991,21666020,25472869,1667203562,:108055_22_0,:1762368278_17_0,1668872310,25256615,:108245_3_0,25256827,25531833,:25472806_5_0,1667203546,25256616,701600719,25473408,:271949991_12_0,:25473134_6_0,772092173,60590173,25496607,21665930,:26845543_9_0,25473423,:385562683_13_0,:691084080_13_0,:25256615_11_0,25473557,:107343_15_0,25505558,:1961159889_13_0,:21665964_4_0,:1666324146_14_0,:25256840_12_0,:1666324146_17_0,:25256616_11_0,25256836,25256830"/>
    </tls_building>

    <processing>
        <no-turnarounds value="true"/>
        <offset.disable-normalization value="true"/>
    </processing>

</configuration>
-->

<net version="0.13" xmlns:xsi="http://www.w3.org/2001/XMLSchema-instance" xsi:noNamespaceSchemaLocation="http://sumo.sf.net/xsd/net_file.xsd">

    <location netOffset="-694611.55,-5708582.30" convBoundary="0.00,0.00,4446.20,3623.59" origBoundary="-0.195490,51.493571,-0.057486,51.526004" projParameter="+proj=utm +zone=30 +ellps=WGS84 +datum=WGS84 +units=m +no_defs"/>

    <edge id=":101990_0" function="internal">
        <lane id=":101990_0_0" index="0" speed="13.41" length="0.10" shape="3266.94,2991.00 3266.94,2991.00"/>
    </edge>
    <edge id=":101991_0" function="internal">
        <lane id=":101991_0_0" index="0" speed="13.41" length="0.10" shape="3228.24,3110.89 3228.24,3110.89"/>
    </edge>
    <edge id=":101997_0" function="internal">
        <lane id=":101997_0_0" index="0" speed="13.41" length="0.10" shape="3205.32,2823.18 3205.32,2823.18"/>
    </edge>
    <edge id=":101998_0" function="internal">
        <lane id=":101998_0_0" index="0" speed="13.41" length="0.10" shape="3310.96,2857.45 3310.96,2857.46"/>
    </edge>
    <edge id=":101999_0" function="internal">
        <lane id=":101999_0_0" index="0" speed="27.78" length="0.10" shape="3464.66,2907.33 3464.66,2907.30"/>
    </edge>
    <edge id=":101999_1" function="internal">
        <lane id=":101999_1_0" index="0" speed="27.78" length="0.10" shape="3461.52,2906.29 3461.52,2906.30"/>
    </edge>
    <edge id=":102005_0" function="internal">
        <lane id=":102005_0_0" index="0" speed="13.41" length="5.16" shape="3662.81,2814.80 3662.54,2816.23 3662.76,2817.40 3663.48,2818.30 3664.70,2818.93"/>
    </edge>
    <edge id=":102005_1" function="internal">
        <lane id=":102005_1_0" index="0" speed="13.41" length="6.65" shape="3662.81,2814.80 3660.60,2821.07"/>
    </edge>
    <edge id=":102005_2" function="internal">
        <lane id=":102005_2_0" index="0" speed="13.41" length="6.52" shape="3659.68,2813.77 3657.51,2819.92"/>
    </edge>
    <edge id=":102005_3" function="internal">
        <lane id=":102005_3_0" index="0" speed="13.41" length="2.41" shape="3659.68,2813.77 3658.51,2814.68 3657.59,2814.82"/>
    </edge>
    <edge id=":102005_11" function="internal">
        <lane id=":102005_11_0" index="0" speed="13.41" length="2.41" shape="3657.59,2814.82 3656.94,2814.16 3656.54,2812.73"/>
    </edge>
    <edge id=":102005_4" function="internal">
        <lane id=":102005_4_0" index="0" speed="13.41" length="5.03" shape="3649.47,2813.62 3650.83,2813.90 3651.93,2813.67 3652.80,2812.93 3653.41,2811.70"/>
    </edge>
    <edge id=":102005_5" function="internal">
        <lane id=":102005_5_0" index="0" speed="13.41" length="16.12" shape="3649.47,2813.62 3653.17,2814.93 3657.07,2816.30 3660.98,2817.66 3664.70,2818.93"/>
    </edge>
    <edge id=":102005_6" function="internal">
        <lane id=":102005_6_0" index="0" speed="13.41" length="10.96" shape="3649.47,2813.62 3653.41,2815.24 3656.07,2816.83 3657.43,2818.39 3657.51,2819.92"/>
    </edge>
    <edge id=":102005_7" function="internal">
        <lane id=":102005_7_0" index="0" speed="13.41" length="6.26" shape="3651.33,2817.60 3653.41,2811.70"/>
    </edge>
    <edge id=":102005_8" function="internal">
        <lane id=":102005_8_0" index="0" speed="13.41" length="6.39" shape="3654.42,2818.76 3656.54,2812.73"/>
    </edge>
    <edge id=":102005_9" function="internal">
        <lane id=":102005_9_0" index="0" speed="13.41" length="4.46" shape="3654.42,2818.76 3655.48,2817.66 3657.54,2817.33 3658.38,2817.44"/>
    </edge>
    <edge id=":102005_12" function="internal">
        <lane id=":102005_12_0" index="0" speed="13.41" length="6.50" shape="3658.38,2817.44 3660.62,2817.75 3664.70,2818.93"/>
    </edge>
    <edge id=":102005_10" function="internal">
        <lane id=":102005_10_0" index="0" speed="13.41" length="2.41" shape="3654.42,2818.76 3655.63,2817.89 3656.55,2817.79"/>
    </edge>
    <edge id=":102005_13" function="internal">
        <lane id=":102005_13_0" index="0" speed="13.41" length="2.41" shape="3656.55,2817.79 3657.17,2818.47 3657.51,2819.92"/>
    </edge>
    <edge id=":107316_0" function="internal">
        <lane id=":107316_0_0" index="0" speed="25.00" length="12.97" shape="4023.95,2825.92 4019.32,2829.33 4016.16,2831.87 4014.46,2833.52 4014.24,2834.29"/>
    </edge>
    <edge id=":107316_1" function="internal">
        <lane id=":107316_1_0" index="0" speed="25.00" length="9.69" shape="4023.95,2825.92 4020.51,2828.39 4018.05,2830.14 4016.56,2831.19 4016.05,2831.53"/>
    </edge>
    <edge id=":107316_2" function="internal">
        <lane id=":107316_2_0" index="0" speed="27.78" length="4.82" shape="4017.86,2828.77 4018.44,2830.14 4018.33,2831.06 4017.54,2831.52 4016.05,2831.53"/>
    </edge>
    <edge id=":107322_0" function="internal">
        <lane id=":107322_0_0" index="0" speed="27.78" length="2.41" shape="4308.82,2548.63 4309.88,2549.67 4310.13,2550.56"/>
    </edge>
    <edge id=":107322_3" function="internal">
        <lane id=":107322_3_0" index="0" speed="27.78" length="2.41" shape="4310.13,2550.56 4309.57,2551.29 4308.20,2551.87"/>
    </edge>
    <edge id=":107322_1" function="internal">
        <lane id=":107322_1_0" index="0" speed="25.00" length="5.51" shape="4309.33,2559.08 4309.98,2557.61 4309.90,2556.46 4309.10,2555.63 4307.58,2555.11"/>
    </edge>
    <edge id=":107322_2" function="internal">
        <lane id=":107322_2_0" index="0" speed="25.00" length="9.07" shape="4309.33,2559.08 4310.71,2556.28 4310.98,2554.15 4310.15,2552.68 4308.20,2551.87"/>
    </edge>
    <edge id=":107333_0" function="internal">
        <lane id=":107333_0_0" index="0" speed="27.78" length="3.30" shape="3685.76,2420.63 3687.08,2420.93 3688.05,2421.06 3688.66,2421.01 3688.93,2420.78"/>
    </edge>
    <edge id=":107333_1" function="internal">
        <lane id=":107333_1_0" index="0" speed="27.78" length="10.30" shape="3684.92,2423.82 3687.87,2424.06 3689.96,2423.42 3692.05,2422.77 3695.01,2422.94"/>
    </edge>
    <edge id=":107333_2" function="internal">
        <lane id=":107333_2_0" index="0" speed="27.78" length="7.77" shape="3687.16,2427.60 3692.12,2421.62"/>
    </edge>
    <edge id=":107333_3" function="internal">
        <lane id=":107333_3_0" index="0" speed="27.78" length="5.12" shape="3690.35,2428.42 3690.89,2427.15 3691.71,2426.35 3692.84,2426.02 3694.25,2426.15"/>
    </edge>
    <edge id=":107339_0" function="internal">
        <lane id=":107339_0_0" index="0" speed="27.78" length="0.10" shape="3794.98,2702.84 3794.99,2702.84"/>
    </edge>
    <edge id=":107339_1" function="internal">
        <lane id=":107339_1_0" index="0" speed="27.78" length="0.10" shape="3794.02,2706.00 3794.01,2706.00"/>
    </edge>
    <edge id=":107339_2" function="internal">
        <lane id=":107339_2_0" index="0" speed="25.00" length="3.15" shape="3794.02,2706.00 3793.93,2706.18 3793.72,2706.73 3793.40,2707.66 3792.95,2708.96"/>
    </edge>
    <edge id=":107343_0" function="internal">
        <lane id=":107343_0_0" index="0" speed="17.81" length="6.40" shape="3686.34,2753.47 3684.96,2753.32 3683.76,2753.86 3682.74,2755.10 3681.90,2757.02"/>
    </edge>
    <edge id=":107343_1" function="internal">
        <lane id=":107343_1_0" index="0" speed="17.81" length="16.21" shape="3686.34,2753.47 3682.54,2752.48 3678.43,2751.72 3674.33,2750.97 3670.52,2750.00"/>
    </edge>
    <edge id=":107343_2" function="internal">
        <lane id=":107343_2_0" index="0" speed="17.81" length="11.96" shape="3686.34,2753.47 3682.40,2751.84 3679.80,2750.03 3678.53,2748.05 3678.59,2745.88"/>
    </edge>
    <edge id=":107343_3" function="internal">
        <lane id=":107343_3_0" index="0" speed="13.41" length="9.59" shape="3684.87,2747.89 3681.90,2757.02"/>
    </edge>
    <edge id=":107343_4" function="internal">
        <lane id=":107343_4_0" index="0" speed="13.41" length="9.57" shape="3681.73,2746.88 3678.77,2755.98"/>
    </edge>
    <edge id=":107343_5" function="internal">
        <lane id=":107343_5_0" index="0" speed="13.41" length="6.54" shape="3681.73,2746.88 3680.29,2749.37 3677.94,2750.72 3676.99,2750.78"/>
    </edge>
    <edge id=":107343_14" function="internal">
        <lane id=":107343_14_0" index="0" speed="13.41" length="6.58" shape="3676.99,2750.78 3674.69,2750.93 3670.52,2750.00"/>
    </edge>
    <edge id=":107343_6" function="internal">
        <lane id=":107343_6_0" index="0" speed="13.41" length="2.41" shape="3681.73,2746.88 3680.57,2747.81 3679.65,2747.95"/>
    </edge>
    <edge id=":107343_15" function="internal">
        <lane id=":107343_15_0" index="0" speed="13.41" length="2.41" shape="3679.65,2747.95 3678.99,2747.31 3678.59,2745.88"/>
    </edge>
    <edge id=":107343_7" function="internal">
        <lane id=":107343_7_0" index="0" speed="13.41" length="5.01" shape="3671.53,2746.86 3672.89,2747.10 3673.99,2746.84 3674.85,2746.10 3675.45,2744.87"/>
    </edge>
    <edge id=":107343_8" function="internal">
        <lane id=":107343_8_0" index="0" speed="13.41" length="13.13" shape="3671.53,2746.86 3675.46,2748.56 3677.97,2750.64 3679.07,2753.12 3678.77,2755.98"/>
    </edge>
    <edge id=":107343_9" function="internal">
        <lane id=":107343_9_0" index="0" speed="13.41" length="4.82" shape="3671.53,2746.86 3672.46,2748.03 3672.60,2748.94 3671.95,2749.60 3670.52,2750.00"/>
    </edge>
    <edge id=":107343_10" function="internal">
        <lane id=":107343_10_0" index="0" speed="13.41" length="5.01" shape="3672.50,2753.91 3672.74,2752.56 3672.49,2751.46 3671.75,2750.60 3670.52,2750.00"/>
    </edge>
    <edge id=":107343_11" function="internal">
        <lane id=":107343_11_0" index="0" speed="13.41" length="9.51" shape="3672.50,2753.91 3675.45,2744.87"/>
    </edge>
    <edge id=":107343_12" function="internal">
        <lane id=":107343_12_0" index="0" speed="13.41" length="9.54" shape="3675.63,2754.95 3678.59,2745.88"/>
    </edge>
    <edge id=":107343_13" function="internal">
        <lane id=":107343_13_0" index="0" speed="13.41" length="2.41" shape="3675.63,2754.95 3676.80,2754.03 3677.72,2753.90"/>
    </edge>
    <edge id=":107343_16" function="internal">
        <lane id=":107343_16_0" index="0" speed="13.41" length="2.41" shape="3677.72,2753.90 3678.37,2754.55 3678.77,2755.98"/>
    </edge>
    <edge id=":107345_0" function="internal">
        <lane id=":107345_0_0" index="0" speed="13.41" length="5.02" shape="3697.87,2707.62 3697.62,2708.97 3697.86,2710.08 3698.59,2710.94 3699.83,2711.57"/>
    </edge>
    <edge id=":107345_1" function="internal">
        <lane id=":107345_1_0" index="0" speed="13.41" length="6.23" shape="3697.87,2707.62 3695.91,2713.54"/>
    </edge>
    <edge id=":107345_2" function="internal">
        <lane id=":107345_2_0" index="0" speed="13.41" length="6.29" shape="3694.75,2706.55 3692.77,2712.53"/>
    </edge>
    <edge id=":107345_3" function="internal">
        <lane id=":107345_3_0" index="0" speed="13.41" length="4.82" shape="3694.75,2706.55 3693.57,2707.46 3692.65,2707.58 3692.01,2706.92 3691.63,2705.48"/>
    </edge>
    <edge id=":107345_4" function="internal">
        <lane id=":107345_4_0" index="0" speed="13.41" length="6.42" shape="3686.48,2710.51 3688.50,2704.41"/>
    </edge>
    <edge id=":107345_5" function="internal">
        <lane id=":107345_5_0" index="0" speed="13.41" length="6.36" shape="3689.63,2711.52 3691.63,2705.48"/>
    </edge>
    <edge id=":107345_6" function="internal">
        <lane id=":107345_6_0" index="0" speed="13.41" length="10.95" shape="3689.63,2711.52 3690.64,2710.36 3692.67,2709.98 3695.74,2710.39 3699.83,2711.57"/>
    </edge>
    <edge id=":107345_7" function="internal">
        <lane id=":107345_7_0" index="0" speed="13.41" length="4.82" shape="3689.63,2711.52 3690.79,2710.59 3691.70,2710.45 3692.36,2711.10 3692.77,2712.53"/>
    </edge>
    <edge id=":107349_0" function="internal">
        <lane id=":107349_0_0" index="0" speed="22.22" length="6.20" shape="3747.76,2843.30 3745.90,2849.21"/>
    </edge>
    <edge id=":107349_1" function="internal">
        <lane id=":107349_1_0" index="0" speed="17.81" length="5.00" shape="3743.87,2845.32 3745.11,2845.91 3745.86,2846.76 3746.12,2847.86 3745.90,2849.21"/>
    </edge>
    <edge id=":107810_0" function="internal">
        <lane id=":107810_0_0" index="0" speed="22.22" length="4.82" shape="4304.66,2054.91 4305.12,2056.32 4304.94,2057.23 4304.10,2057.62 4302.62,2057.51"/>
    </edge>
    <edge id=":107812_0" function="internal">
        <lane id=":107812_0_0" index="0" speed="22.22" length="5.00" shape="4234.52,2009.47 4233.28,2008.87 4232.13,2008.77 4231.07,2009.18 4230.10,2010.09"/>
    </edge>
    <edge id=":107812_1" function="internal">
        <lane id=":107812_1_0" index="0" speed="18.06" length="7.04" shape="4234.52,2009.47 4229.04,2005.04"/>
    </edge>
    <edge id=":107812_2" function="internal">
        <lane id=":107812_2_0" index="0" speed="22.22" length="2.41" shape="4234.52,2009.47 4233.95,2008.09 4234.06,2007.18"/>
    </edge>
    <edge id=":107812_9" function="internal">
        <lane id=":107812_9_0" index="0" speed="22.22" length="2.41" shape="4234.06,2007.18 4234.86,2006.72 4236.34,2006.71"/>
    </edge>
    <edge id=":107812_3" function="internal">
        <lane id=":107812_3_0" index="0" speed="22.22" length="5.35" shape="4235.62,2002.02 4234.99,2003.45 4234.90,2004.71 4235.35,2005.79 4236.34,2006.71"/>
    </edge>
    <edge id=":107812_4" function="internal">
        <lane id=":107812_4_0" index="0" speed="22.22" length="9.78" shape="4235.62,2002.02 4230.10,2010.09"/>
    </edge>
    <edge id=":107812_5" function="internal">
        <lane id=":107812_5_0" index="0" speed="18.06" length="8.50" shape="4235.62,2002.02 4233.89,2004.42 4232.22,2005.72 4230.60,2005.93 4229.04,2005.04"/>
    </edge>
    <edge id=":107812_6" function="internal">
        <lane id=":107812_6_0" index="0" speed="18.06" length="6.49" shape="4231.29,2002.63 4236.34,2006.71"/>
    </edge>
    <edge id=":107812_7" function="internal">
        <lane id=":107812_7_0" index="0" speed="18.06" length="8.33" shape="4231.29,2002.63 4232.23,2004.05 4232.35,2005.76 4231.64,2007.78 4230.10,2010.09"/>
    </edge>
    <edge id=":107812_8" function="internal">
        <lane id=":107812_8_0" index="0" speed="13.89" length="4.82" shape="4231.29,2002.63 4231.63,2004.08 4231.37,2004.96 4230.51,2005.29 4229.04,2005.04"/>
    </edge>
    <edge id=":108053_0" function="internal">
        <lane id=":108053_0_0" index="0" speed="14.59" length="5.30" shape="3871.49,2457.88 3871.15,2459.35 3871.41,2460.47 3872.26,2461.24 3873.70,2461.65"/>
    </edge>
    <edge id=":108053_1" function="internal">
        <lane id=":108053_1_0" index="0" speed="4.86" length="10.71" shape="3871.49,2457.88 3870.38,2460.76 3869.61,2462.90 3868.90,2465.06 3868.02,2468.01"/>
    </edge>
    <edge id=":108053_2" function="internal">
        <lane id=":108053_2_0" index="0" speed="1.39" length="4.82" shape="3871.49,2457.88 3870.28,2458.74 3869.36,2458.82 3868.74,2458.14 3868.42,2456.68"/>
    </edge>
    <edge id=":108053_3" function="internal">
        <lane id=":108053_3_0" index="0" speed="14.59" length="7.04" shape="3862.96,2460.12 3864.76,2460.12 3866.27,2459.55 3867.49,2458.40 3868.42,2456.68"/>
    </edge>
    <edge id=":108053_4" function="internal">
        <lane id=":108053_4_0" index="0" speed="27.78" length="10.85" shape="3862.96,2460.12 3866.15,2460.59 3868.33,2460.90 3870.51,2461.21 3873.70,2461.65"/>
    </edge>
    <edge id=":108053_5" function="internal">
        <lane id=":108053_5_0" index="0" speed="27.78" length="10.87" shape="3862.49,2463.39 3865.68,2463.85 3867.87,2464.17 3870.05,2464.47 3873.25,2464.92"/>
    </edge>
    <edge id=":108053_6" function="internal">
        <lane id=":108053_6_0" index="0" speed="18.06" length="8.27" shape="3862.49,2463.39 3865.31,2464.04 3867.18,2465.02 3868.08,2466.35 3868.02,2468.01"/>
    </edge>
    <edge id=":108053_7" function="internal">
        <lane id=":108053_7_0" index="0" speed="4.86" length="10.99" shape="3864.85,2467.08 3865.75,2464.09 3866.49,2461.83 3867.29,2459.60 3868.42,2456.68"/>
    </edge>
    <edge id=":108053_8" function="internal">
        <lane id=":108053_8_0" index="0" speed="18.06" length="9.32" shape="3864.85,2467.08 3865.73,2465.74 3867.42,2464.94 3869.93,2464.67 3873.25,2464.92"/>
    </edge>
    <edge id=":108053_9" function="internal">
        <lane id=":108053_9_0" index="0" speed="8.33" length="4.82" shape="3864.85,2467.08 3865.99,2466.12 3866.90,2465.96 3867.58,2466.59 3868.02,2468.01"/>
    </edge>
    <edge id=":108054_0" function="internal">
        <lane id=":108054_0_0" index="0" speed="25.00" length="5.11" shape="3725.93,2278.68 3724.64,2278.09 3723.50,2278.09 3722.52,2278.67 3721.70,2279.82"/>
    </edge>
    <edge id=":108054_1" function="internal">
        <lane id=":108054_1_0" index="0" speed="22.22" length="9.74" shape="3725.93,2278.68 3717.33,2274.10"/>
    </edge>
    <edge id=":108054_2" function="internal">
        <lane id=":108054_2_0" index="0" speed="27.78" length="6.36" shape="3724.88,2274.31 3721.70,2279.82"/>
    </edge>
    <edge id=":108054_3" function="internal">
        <lane id=":108054_3_0" index="0" speed="27.78" length="6.70" shape="3722.12,2272.51 3718.76,2278.31"/>
    </edge>
    <edge id=":108054_4" function="internal">
        <lane id=":108054_4_0" index="0" speed="25.00" length="5.56" shape="3722.12,2272.51 3721.12,2273.69 3719.99,2274.34 3718.73,2274.48 3717.33,2274.10"/>
    </edge>
    <edge id=":108055_0" function="internal">
        <lane id=":108055_0_0" index="0" speed="18.06" length="4.17" shape="3794.97,2187.60 3793.33,2186.95 3792.22,2186.39 3791.63,2185.91 3791.57,2185.52"/>
    </edge>
    <edge id=":108055_1" function="internal">
        <lane id=":108055_1_0" index="0" speed="18.06" length="17.41" shape="3794.97,2187.60 3791.58,2186.34 3788.16,2184.88 3784.26,2182.85 3779.42,2179.89"/>
    </edge>
    <edge id=":108055_2" function="internal">
        <lane id=":108055_2_0" index="0" speed="18.06" length="7.50" shape="3794.97,2187.60 3790.87,2185.43 3789.12,2183.17"/>
    </edge>
    <edge id=":108055_18" function="internal">
        <lane id=":108055_18_0" index="0" speed="18.06" length="8.59" shape="3789.12,2183.17 3788.69,2182.62 3788.45,2179.16 3790.12,2175.07"/>
    </edge>
    <edge id=":108055_3" function="internal">
        <lane id=":108055_3_0" index="0" speed="8.33" length="2.41" shape="3794.97,2187.60 3794.09,2186.40 3793.99,2185.49"/>
    </edge>
    <edge id=":108055_19" function="internal">
        <lane id=":108055_19_0" index="0" speed="8.33" length="2.41" shape="3793.99,2185.49 3794.66,2184.85 3796.10,2184.50"/>
    </edge>
    <edge id=":108055_4" function="internal">
        <lane id=":108055_4_0" index="0" speed="18.06" length="7.06" shape="3795.79,2178.45 3794.72,2180.66 3794.41,2182.40 3794.87,2183.68 3796.10,2184.50"/>
    </edge>
    <edge id=":108055_5" function="internal">
        <lane id=":108055_5_0" index="0" speed="27.78" length="8.23" shape="3795.79,2178.45 3791.57,2185.52"/>
    </edge>
    <edge id=":108055_6" function="internal">
        <lane id=":108055_6_0" index="0" speed="27.78" length="8.28" shape="3792.96,2176.76 3788.71,2183.87"/>
    </edge>
    <edge id=":108055_7" function="internal">
        <lane id=":108055_7_0" index="0" speed="27.78" length="6.61" shape="3792.96,2176.76 3790.18,2180.18 3788.23,2181.20"/>
    </edge>
    <edge id=":108055_20" function="internal">
        <lane id=":108055_20_0" index="0" speed="27.78" length="9.37" shape="3788.23,2181.20 3787.00,2181.84 3783.41,2181.75 3779.42,2179.89"/>
    </edge>
    <edge id=":108055_8" function="internal">
        <lane id=":108055_8_0" index="0" speed="27.78" length="2.41" shape="3792.96,2176.76 3791.61,2177.40 3790.69,2177.33"/>
    </edge>
    <edge id=":108055_21" function="internal">
        <lane id=":108055_21_0" index="0" speed="27.78" length="2.41" shape="3790.69,2177.33 3790.20,2176.55 3790.12,2175.07"/>
    </edge>
    <edge id=":108055_9" function="internal">
        <lane id=":108055_9_0" index="0" speed="27.78" length="5.05" shape="3783.02,2174.36 3784.28,2174.95 3785.41,2174.98 3786.42,2174.45 3787.29,2173.37"/>
    </edge>
    <edge id=":108055_10" function="internal">
        <lane id=":108055_10_0" index="0" speed="18.06" length="16.66" shape="3781.22,2177.13 3785.82,2179.95 3789.51,2181.87 3792.78,2183.26 3796.10,2184.50"/>
    </edge>
    <edge id=":108055_11" function="internal">
        <lane id=":108055_11_0" index="0" speed="27.78" length="3.30" shape="3781.22,2177.13 3783.94,2178.99"/>
    </edge>
    <edge id=":108055_22" function="internal">
        <lane id=":108055_22_0" index="0" speed="27.78" length="7.02" shape="3783.94,2178.99 3784.79,2179.57 3787.23,2181.50 3788.53,2182.94 3788.71,2183.87"/>
    </edge>
    <edge id=":108055_12" function="internal">
        <lane id=":108055_12_0" index="0" speed="27.78" length="2.41" shape="3781.22,2177.13 3781.81,2178.49 3781.70,2179.41"/>
    </edge>
    <edge id=":108055_23" function="internal">
        <lane id=":108055_23_0" index="0" speed="27.78" length="2.41" shape="3781.70,2179.41 3780.91,2179.88 3779.42,2179.89"/>
    </edge>
    <edge id=":108055_13" function="internal">
        <lane id=":108055_13_0" index="0" speed="27.78" length="4.82" shape="3779.54,2186.55 3779.83,2185.59 3779.61,2184.62 3778.87,2183.64 3777.62,2182.66"/>
    </edge>
    <edge id=":108055_14" function="internal">
        <lane id=":108055_14_0" index="0" speed="27.78" length="15.29" shape="3779.54,2186.55 3781.81,2182.62 3783.38,2179.94 3784.96,2177.27 3787.29,2173.37"/>
    </edge>
    <edge id=":108055_15" function="internal">
        <lane id=":108055_15_0" index="0" speed="27.78" length="15.24" shape="3782.39,2188.20 3784.66,2184.28 3786.22,2181.61 3787.80,2178.95 3790.12,2175.07"/>
    </edge>
    <edge id=":108055_16" function="internal">
        <lane id=":108055_16_0" index="0" speed="18.06" length="6.12" shape="3782.39,2188.20 3784.81,2185.28 3786.87,2184.21"/>
    </edge>
    <edge id=":108055_24" function="internal">
        <lane id=":108055_24_0" index="0" speed="18.06" length="9.50" shape="3786.87,2184.21 3787.90,2183.68 3791.66,2183.43 3796.10,2184.50"/>
    </edge>
    <edge id=":108055_17" function="internal">
        <lane id=":108055_17_0" index="0" speed="27.78" length="5.59" shape="3782.39,2188.20 3782.35,2184.75 3783.38,2182.88"/>
    </edge>
    <edge id=":108055_25" function="internal">
        <lane id=":108055_25_0" index="0" speed="27.78" length="5.59" shape="3783.38,2182.88 3785.50,2182.58 3788.71,2183.87"/>
    </edge>
    <edge id=":108058_0" function="internal">
        <lane id=":108058_0_0" index="0" speed="13.41" length="0.28" shape="3970.45,1888.07 3970.28,1888.30"/>
    </edge>
    <edge id=":108058_1" function="internal">
        <lane id=":108058_1_0" index="0" speed="13.41" length="0.87" shape="3967.97,1885.90 3967.45,1886.60"/>
    </edge>
    <edge id=":108058_2" function="internal">
        <lane id=":108058_2_0" index="0" speed="13.41" length="2.41" shape="3967.97,1885.90 3966.53,1886.28 3965.64,1886.05"/>
    </edge>
    <edge id=":108058_6" function="internal">
        <lane id=":108058_6_0" index="0" speed="13.41" length="2.41" shape="3965.64,1886.05 3965.29,1885.20 3965.49,1883.72"/>
    </edge>
    <edge id=":108058_3" function="internal">
        <lane id=":108058_3_0" index="0" speed="13.41" length="2.05" shape="3961.80,1883.20 3963.00,1881.55"/>
    </edge>
    <edge id=":108058_4" function="internal">
        <lane id=":108058_4_0" index="0" speed="13.41" length="1.46" shape="3964.62,1884.90 3965.49,1883.72"/>
    </edge>
    <edge id=":108058_5" function="internal">
        <lane id=":108058_5_0" index="0" speed="13.41" length="2.41" shape="3964.62,1884.90 3965.97,1884.27 3966.89,1884.34"/>
    </edge>
    <edge id=":108058_7" function="internal">
        <lane id=":108058_7_0" index="0" speed="13.41" length="2.41" shape="3966.89,1884.34 3967.38,1885.12 3967.45,1886.60"/>
    </edge>
    <edge id=":108062_0" function="internal">
        <lane id=":108062_0_0" index="0" speed="25.00" length="7.65" shape="4111.86,2514.07 4109.73,2513.95 4107.96,2514.41 4106.55,2515.45 4105.50,2517.07"/>
    </edge>
    <edge id=":108062_1" function="internal">
        <lane id=":108062_1_0" index="0" speed="27.78" length="11.54" shape="4111.86,2514.07 4108.49,2513.46 4106.18,2513.01 4103.89,2512.52 4100.55,2511.78"/>
    </edge>
    <edge id=":108062_2" function="internal">
        <lane id=":108062_2_0" index="0" speed="27.78" length="11.40" shape="4112.44,2510.82 4109.11,2510.22 4106.83,2509.78 4104.57,2509.29 4101.26,2508.56"/>
    </edge>
    <edge id=":108062_3" function="internal">
        <lane id=":108062_3_0" index="0" speed="27.78" length="2.41" shape="4112.44,2510.82 4111.36,2509.79 4111.10,2508.91"/>
    </edge>
    <edge id=":108062_14" function="internal">
        <lane id=":108062_14_0" index="0" speed="27.78" length="2.41" shape="4111.10,2508.91 4111.65,2508.17 4113.01,2507.57"/>
    </edge>
    <edge id=":108062_4" function="internal">
        <lane id=":108062_4_0" index="0" speed="25.00" length="5.39" shape="4111.64,2500.43 4111.15,2501.89 4111.31,2503.03 4112.13,2503.84 4113.59,2504.32"/>
    </edge>
    <edge id=":108062_5" function="internal">
        <lane id=":108062_5_0" index="0" speed="22.22" length="17.75" shape="4111.64,2500.43 4110.03,2504.28 4108.51,2508.72 4107.02,2513.18 4105.50,2517.07"/>
    </edge>
    <edge id=":108062_6" function="internal">
        <lane id=":108062_6_0" index="0" speed="25.00" length="3.72" shape="4111.64,2500.43 4109.73,2503.62"/>
    </edge>
    <edge id=":108062_15" function="internal">