<?xml version="1.0" encoding="UTF-8"?>

<!-- generated on 03/12/13 01:44:55 by SUMO netconvert Version 0.16.0
<?xml version="1.0" encoding="UTF-8"?>

<configuration xmlns:xsi="http://www.w3.org/2001/XMLSchema-instance" xsi:noNamespaceSchemaLocation="http://sumo.sf.net/xsd/netconvertConfiguration.xsd">

    <input>
        <sumo-net-file value="G:\Kings\OSTGui\output\0.36692923454782034osm.net.xml"/>
    </input>

    <output>
        <output-file value="G:\Kings\OSTGui\output\0.36692923454782034osm.net.xml"/>
    </output>

    <tls_building>
        <tls.set value=":108094_4_0,:2123111723_4_0,1782020492,:25507041_4_0,25534108"/>
    </tls_building>

    <processing>
        <no-turnarounds value="true"/>
        <offset.disable-normalization value="true"/>
    </processing>

</configuration>
-->

<net version="0.13" xmlns:xsi="http://www.w3.org/2001/XMLSchema-instance" xsi:noNamespaceSchemaLocation="http://sumo.sf.net/xsd/net_file.xsd">

    <location netOffset="-698610.03,-5709032.43" convBoundary="0.00,0.00,1363.46,1171.36" origBoundary="-0.138598,51.497488,-0.118656,51.507621" projParameter="+proj=utm +zone=30 +ellps=WGS84 +datum=WGS84 +units=m +no_defs"/>

    <edge id=":107759_0" function="internal">
        <lane id=":107759_0_0" index="0" speed="27.78" length="5.18" shape="844.31,423.63 845.73,423.43 846.75,422.84 847.39,421.85 847.63,420.47"/>
    </edge>
    <edge id=":107759_1" function="internal">
        <lane id=":107759_1_0" index="0" speed="27.78" length="10.34" shape="844.33,426.93 847.27,426.40 849.16,425.28 851.05,424.19 853.99,423.76"/>
    </edge>
    <edge id=":107759_2" function="internal">
        <lane id=":107759_2_0" index="0" speed="27.78" length="10.29" shape="847.41,430.05 847.97,427.15 849.15,425.31 850.33,423.47 850.93,420.57"/>
    </edge>
    <edge id=":107759_3" function="internal">
        <lane id=":107759_3_0" index="0" speed="27.78" length="5.03" shape="850.71,430.11 850.93,428.74 851.53,427.77 852.52,427.21 853.88,427.06"/>
    </edge>
    <edge id=":108094_0" function="internal">
        <lane id=":108094_0_0" index="0" speed="22.22" length="9.92" shape="743.71,431.24 740.72,433.05 739.89,434.25 741.22,434.85 744.72,434.85"/>
    </edge>
    <edge id=":108094_1" function="internal">
        <lane id=":108094_1_0" index="0" speed="22.22" length="8.44" shape="743.71,431.24 737.53,436.99"/>
    </edge>
    <edge id=":108094_2" function="internal">
        <lane id=":108094_2_0" index="0" speed="22.22" length="7.47" shape="737.34,433.70 744.72,434.85"/>
    </edge>
    <edge id=":108094_3" function="internal">
        <lane id=":108094_3_0" index="0" speed="22.22" length="2.96" shape="737.34,433.70 738.62,434.45 739.08,435.25 738.87,435.75"/>
    </edge>
    <edge id=":108094_4" function="internal">
        <lane id=":108094_4_0" index="0" speed="22.22" length="1.86" shape="738.87,435.75 738.72,436.10 737.53,436.99"/>
    </edge>
    <edge id=":109846_0" function="internal">
        <lane id=":109846_0_0" index="0" speed="27.78" length="4.98" shape="632.28,251.58 632.78,253.03 632.61,253.97 631.75,254.39 630.22,254.29"/>
    </edge>
    <edge id=":1269206848_0" function="internal">
        <lane id=":1269206848_0_0" index="0" speed="13.41" length="8.71" shape="853.33,287.42 852.59,284.50 851.71,283.48 850.68,284.35 849.50,287.12"/>
    </edge>
    <edge id=":1269206848_1" function="internal">
        <lane id=":1269206848_1_0" index="0" speed="10.87" length="16.09" shape="856.56,286.86 855.23,281.49 853.37,277.69 850.95,275.45 847.99,274.78"/>
    </edge>
    <edge id=":1269206848_2" function="internal">
        <lane id=":1269206848_2_0" index="0" speed="13.41" length="18.63" shape="856.56,286.86 854.89,281.59 852.83,278.10 851.38,274.60 851.50,269.34"/>
    </edge>
    <edge id=":1269206848_3" function="internal">
        <lane id=":1269206848_3_0" index="0" speed="13.41" length="18.80" shape="857.99,270.54 856.37,275.75 854.23,278.95 851.84,282.09 849.50,287.12"/>
    </edge>
    <edge id=":1269206848_4" function="internal">
        <lane id=":1269206848_4_0" index="0" speed="13.41" length="18.35" shape="854.74,269.94 853.15,275.02 851.03,278.13 848.67,281.18 846.38,286.07"/>
    </edge>
    <edge id=":1269206848_5" function="internal">
        <lane id=":1269206848_5_0" index="0" speed="10.87" length="5.56" shape="854.74,269.94 854.00,271.98 852.63,273.47 851.39,274.04"/>
    </edge>
    <edge id=":1269206848_10" function="internal">
        <lane id=":1269206848_10_0" index="0" speed="10.87" length="3.50" shape="851.39,274.04 850.63,274.40 847.99,274.78"/>
    </edge>
    <edge id=":1269206848_6" function="internal">
        <lane id=":1269206848_6_0" index="0" speed="13.41" length="2.41" shape="854.74,269.94 853.71,271.01 852.82,271.26"/>
    </edge>
    <edge id=":1269206848_11" function="internal">
        <lane id=":1269206848_11_0" index="0" speed="13.41" length="2.41" shape="852.82,271.26 852.09,270.71 851.50,269.34"/>
    </edge>
    <edge id=":1269206848_7" function="internal">
        <lane id=":1269206848_7_0" index="0" speed="10.87" length="2.77" shape="847.88,271.48 847.85,271.31 847.91,270.80 848.04,269.95 848.25,268.75"/>
    </edge>
    <edge id=":1269206848_8" function="internal">
        <lane id=":1269206848_8_0" index="0" speed="10.87" length="15.58" shape="847.88,271.48 849.07,272.35 849.22,275.07 848.32,279.64 846.38,286.07"/>
    </edge>
    <edge id=":1269206848_9" function="internal">
        <lane id=":1269206848_9_0" index="0" speed="8.33" length="4.82" shape="847.88,271.48 849.14,272.26 849.58,273.07 849.20,273.91 847.99,274.78"/>
    </edge>
    <edge id=":1394454720_0" function="internal">
        <lane id=":1394454720_0_0" index="0" speed="8.33" length="4.82" shape="785.73,322.95 784.26,323.15 783.41,322.79 783.18,321.90 783.57,320.47"/>
    </edge>
    <edge id=":1394454927_0" function="internal">
        <lane id=":1394454927_0_0" index="0" speed="8.33" length="17.77" shape="845.08,274.88 841.90,276.00 839.29,278.72 836.38,282.48 832.32,286.72"/>
    </edge>
    <edge id=":1394454927_1" function="internal">
        <lane id=":1394454927_1_0" index="0" speed="8.33" length="20.75" shape="845.08,274.88 840.44,275.04 834.71,275.21 828.99,275.37 824.35,275.51"/>
    </edge>
    <edge id=":1394454927_2" function="internal">
        <lane id=":1394454927_2_0" index="0" speed="8.33" length="4.82" shape="845.08,274.88 843.82,274.10 843.38,273.29 843.76,272.45 844.97,271.59"/>
    </edge>
    <edge id=":1394454927_3" function="internal">
        <lane id=":1394454927_3_0" index="0" speed="8.33" length="20.72" shape="824.25,272.21 828.90,272.08 834.61,271.91 840.32,271.74 844.97,271.59"/>
    </edge>
    <edge id=":1394454927_4" function="internal">
        <lane id=":1394454927_4_0" index="0" speed="8.33" length="23.61" shape="824.25,272.21 832.25,272.74 835.90,274.92 835.20,278.75 830.15,284.23"/>
    </edge>
    <edge id=":1394454927_5" function="internal">
        <lane id=":1394454927_5_0" index="0" speed="8.33" length="4.82" shape="824.25,272.21 825.51,273.00 825.95,273.81 825.56,274.65 824.35,275.51"/>
    </edge>
    <edge id=":1394454927_6" function="internal">
        <lane id=":1394454927_6_0" index="0" speed="8.33" length="7.12" shape="825.81,279.26 827.41,277.55 827.69,276.36 826.67,275.68 824.35,275.51"/>
    </edge>
    <edge id=":1394454927_7" function="internal">
        <lane id=":1394454927_7_0" index="0" speed="8.33" length="21.06" shape="825.81,279.26 831.28,275.31 836.34,273.02 840.92,271.93 844.97,271.59"/>
    </edge>
    <edge id=":1394454927_8" function="internal">
        <lane id=":1394454927_8_0" index="0" speed="8.33" length="4.82" shape="827.98,281.74 829.46,281.55 830.31,281.90 830.54,282.80 830.15,284.23"/>
    </edge>
    <edge id=":1493486679_0" function="internal">
        <lane id=":1493486679_0_0" index="0" speed="8.33" length="5.08" shape="774.67,280.12 774.41,278.73 773.78,277.75 772.79,277.18 771.44,277.02"/>
    </edge>
    <edge id=":1493486679_1" function="internal">
        <lane id=":1493486679_1_0" index="0" speed="8.33" length="10.42" shape="774.67,280.12 774.93,277.27 776.05,275.21 778.02,273.93 780.85,273.44"/>
    </edge>
    <edge id=":1493486679_2" function="internal">
        <lane id=":1493486679_2_0" index="0" speed="8.33" length="4.82" shape="774.67,280.12 775.43,278.84 776.23,278.39 777.08,278.76 777.96,279.96"/>
    </edge>
    <edge id=":1493486679_3" function="internal">
        <lane id=":1493486679_3_0" index="0" speed="8.33" length="5.02" shape="780.94,276.74 779.58,276.98 778.63,277.59 778.09,278.59 777.96,279.96"/>
    </edge>
    <edge id=":1493486679_4" function="internal">
        <lane id=":1493486679_4_0" index="0" speed="8.33" length="9.50" shape="780.94,276.74 771.44,277.02"/>
    </edge>
    <edge id=":1493486679_5" function="internal">
        <lane id=":1493486679_5_0" index="0" speed="8.33" length="4.82" shape="780.94,276.74 779.68,275.95 779.24,275.14 779.63,274.30 780.85,273.44"/>
    </edge>
    <edge id=":1493486679_6" function="internal">
        <lane id=":1493486679_6_0" index="0" speed="8.33" length="9.51" shape="771.34,273.72 780.85,273.44"/>
    </edge>
    <edge id=":1493486679_7" function="internal">
        <lane id=":1493486679_7_0" index="0" speed="8.33" length="10.33" shape="771.34,273.72 774.12,274.04 776.15,275.19 777.43,277.16 777.96,279.96"/>
    </edge>
    <edge id=":1493486679_8" function="internal">
        <lane id=":1493486679_8_0" index="0" speed="8.33" length="4.82" shape="771.34,273.72 772.60,274.51 773.04,275.32 772.65,276.16 771.44,277.02"/>
    </edge>
    <edge id=":1493486682_0" function="internal">
        <lane id=":1493486682_0_0" index="0" speed="27.78" length="5.48" shape="680.62,286.06 675.45,284.23"/>
    </edge>
    <edge id=":1493486682_1" function="internal">
        <lane id=":1493486682_1_0" index="0" speed="27.78" length="4.97" shape="682.34,283.25 677.61,281.73"/>
    </edge>
    <edge id=":1493486682_2" function="internal">
        <lane id=":1493486682_2_0" index="0" speed="18.06" length="13.97" shape="682.34,283.25 678.35,280.34 677.17,278.18 678.77,276.78 683.17,276.14"/>
    </edge>
    <edge id=":1493486682_3" function="internal">
        <lane id=":1493486682_3_0" index="0" speed="18.06" length="6.15" shape="683.32,279.43 677.61,281.73"/>
    </edge>
    <edge id=":1493486682_4" function="internal">
        <lane id=":1493486682_4_0" index="0" speed="8.33" length="4.82" shape="683.32,279.43 682.04,278.67 681.59,277.86 681.97,277.02 683.17,276.14"/>
    </edge>
    <edge id=":1493486684_0" function="internal">
        <lane id=":1493486684_0_0" index="0" speed="27.78" length="8.97" shape="784.50,340.29 775.61,341.47"/>
    </edge>
    <edge id=":1493486684_1" function="internal">
        <lane id=":1493486684_1_0" index="0" speed="27.78" length="9.33" shape="784.24,337.00 774.99,338.22"/>
    </edge>
    <edge id=":1493486684_2" function="internal">
        <lane id=":1493486684_2_0" index="0" speed="18.06" length="7.86" shape="784.24,337.00 781.43,337.03 779.39,336.60 778.12,335.72 777.62,334.39"/>
    </edge>
    <edge id=":1493486684_3" function="internal">
        <lane id=":1493486684_3_0" index="0" speed="18.06" length="7.79" shape="780.92,334.15 780.63,335.49 779.54,336.62 777.66,337.53 774.99,338.22"/>
    </edge>
    <edge id=":1493486684_4" function="internal">
        <lane id=":1493486684_4_0" index="0" speed="8.33" length="4.82" shape="780.92,334.15 780.18,335.44 779.39,335.91 778.54,335.56 777.62,334.39"/>
    </edge>
    <edge id=":1531297392_0" function="internal">
        <lane id=":1531297392_0_0" index="0" speed="13.41" length="4.82" shape="857.94,239.55 859.06,238.57 859.96,238.39 860.65,239.00 861.12,240.41"/>
    </edge>
    <edge id=":1587629435_0" function="internal">
        <lane id=":1587629435_0_0" index="0" speed="8.33" length="4.82" shape="935.00,449.12 935.42,450.55 935.21,451.45 934.36,451.82 932.88,451.66"/>
    </edge>
    <edge id=":1587633270_0" function="internal">
        <lane id=":1587633270_0_0" index="0" speed="4.86" length="8.09" shape="825.34,439.16 825.63,436.95 826.56,435.39 828.13,434.47 830.34,434.20"/>
    </edge>
    <edge id=":1587633270_1" function="internal">
        <lane id=":1587633270_1_0" index="0" speed="1.39" length="4.82" shape="825.34,439.16 826.15,437.91 826.97,437.49 827.80,437.89 828.64,439.12"/>
    </edge>
    <edge id=":1587633270_2" function="internal">
        <lane id=":1587633270_2_0" index="0" speed="4.86" length="2.64" shape="830.27,437.50 829.55,437.59 829.04,437.89 828.73,438.40 828.64,439.12"/>
    </edge>
    <edge id=":1587633270_3" function="internal">
        <lane id=":1587633270_3_0" index="0" speed="8.33" length="4.82" shape="830.27,437.50 829.05,436.65 828.66,435.82 829.09,435.00 830.34,434.20"/>
    </edge>
    <edge id=":1587633273_0" function="internal">
        <lane id=":1587633273_0_0" index="0" speed="4.86" length="5.21" shape="857.14,441.43 856.90,439.96 856.30,438.90 855.34,438.25 854.01,438.01"/>
    </edge>
    <edge id=":1587633273_1" function="internal">
        <lane id=":1587633273_1_0" index="0" speed="4.86" length="10.57" shape="857.14,441.43 857.45,438.53 858.63,436.47 860.66,435.25 863.56,434.88"/>
    </edge>
    <edge id=":1587633273_2" function="internal">
        <lane id=":1587633273_2_0" index="0" speed="1.39" length="4.82" shape="857.14,441.43 857.92,440.16 858.73,439.72 859.57,440.10 860.44,441.31"/>
    </edge>
    <edge id=":1587633273_3" function="internal">
        <lane id=":1587633273_3_0" index="0" speed="4.86" length="5.06" shape="863.51,438.18 862.12,438.36 861.15,438.94 860.59,439.93 860.44,441.31"/>
    </edge>
    <edge id=":1587633273_4" function="internal">
        <lane id=":1587633273_4_0" index="0" speed="8.33" length="9.50" shape="863.51,438.18 854.01,438.01"/>
    </edge>
    <edge id=":1587633273_5" function="internal">
        <lane id=":1587633273_5_0" index="0" speed="8.33" length="2.41" shape="863.51,438.18 862.28,437.34 861.88,436.51"/>
    </edge>
    <edge id=":1587633273_9" function="internal">
        <lane id=":1587633273_9_0" index="0" speed="8.33" length="2.41" shape="861.88,436.51 862.31,435.69 863.56,434.88"/>
    </edge>
    <edge id=":1587633273_6" function="internal">
        <lane id=":1587633273_6_0" index="0" speed="8.33" length="9.48" shape="854.08,434.71 863.56,434.88"/>
    </edge>
    <edge id=":1587633273_7" function="internal">
        <lane id=":1587633273_7_0" index="0" speed="4.86" length="7.02" shape="854.08,434.71 856.78,435.17 858.74,436.43 859.74,438.11"/>
    </edge>
    <edge id=":1587633273_10" function="internal">
        <lane id=":1587633273_10_0" index="0" speed="4.86" length="3.30" shape="859.74,438.11 859.96,438.47 860.44,441.31"/>
    </edge>
    <edge id=":1587633273_8" function="internal">
        <lane id=":1587633273_8_0" index="0" speed="8.33" length="2.41" shape="854.08,434.71 855.30,435.56 855.70,436.40"/>
    </edge>
    <edge id=":1587633273_11" function="internal">
        <lane id=":1587633273_11_0" index="0" speed="8.33" length="2.41" shape="855.70,436.40 855.27,437.21 854.01,438.01"/>
    </edge>
    <edge id=":1587633281_0" function="internal">
        <lane id=":1587633281_0_0" index="0" speed="1.39" length="4.82" shape="860.53,444.05 859.75,445.32 858.94,445.76 858.10,445.37 857.23,444.17"/>
    </edge>
    <edge id=":1587633283_0" function="internal">
        <lane id=":1587633283_0_0" index="0" speed="1.39" length="4.82" shape="828.69,443.42 827.88,444.67 827.06,445.09 826.23,444.69 825.39,443.46"/>
    </edge>
    <edge id=":1660509194_0" function="internal">
        <lane id=":1660509194_0_0" index="0" speed="27.78" length="0.10" shape="768.82,343.86 768.84,343.86"/>
    </edge>
    <edge id=":1660509194_1" function="internal">
        <lane id=":1660509194_1_0" index="0" speed="27.78" length="0.10" shape="767.42,340.88 767.41,340.88"/>
    </edge>
    <edge id=":1681924239_0" function="internal">
        <lane id=":1681924239_0_0" index="0" speed="5.56" length="9.91" shape="881.93,356.21 875.05,363.34"/>
    </edge>
    <edge id=":1681924239_1" function="internal">
        <lane id=":1681924239_1_0" index="0" speed="5.56" length="10.64" shape="881.93,356.21 879.94,358.53 878.90,360.48 878.42,362.70 878.11,365.79"/>
    </edge>
    <edge id=":1725369135_0" function="internal">
        <lane id=":1725369135_0_0" index="0" speed="27.78" length="0.10" shape="865.01,412.63 865.01,412.63"/>
    </edge>
    <edge id=":1727529872_0" function="internal">
        <lane id=":1727529872_0_0" index="0" speed="27.78" length="3.41" shape="831.82,433.38 833.89,436.09"/>
    </edge>
    <edge id=":1727529872_1" function="internal">
        <lane id=":1727529872_1_0" index="0" speed="27.78" length="1.11" shape="830.06,436.17 830.74,437.06"/>
    </edge>
    <edge id=":1727529875_0" function="internal">
        <lane id=":1727529875_0_0" index="0" speed="22.22" length="0.29" shape="754.79,434.18 755.07,434.13"/>
    </edge>
    <edge id=":1782019856_0" function="internal">
        <lane id=":1782019856_0_0" index="0" speed="27.78" length="0.34" shape="969.18,423.35 969.52,423.34"/>
    </edge>
    <edge id=":1782019856_1" function="internal">
        <lane id=":1782019856_1_0" index="0" speed="27.78" length="0.11" shape="969.40,426.64 969.51,426.64"/>
    </edge>
    <edge id=":1782019879_0" function="internal">
        <lane id=":1782019879_0_0" index="0" speed="18.06" length="6.85" shape="876.52,416.63 875.01,416.88 873.68,417.65 872.53,418.94 871.58,420.75"/>
    </edge>
    <edge id=":1782019879_1" function="internal">
        <lane id=":1782019879_1_0" index="0" speed="27.78" length="10.48" shape="876.52,416.63 873.41,416.59 871.28,416.53 869.16,416.41 866.05,416.23"/>
    </edge>
    <edge id=":1782019879_2" function="internal">
        <lane id=":1782019879_2_0" index="0" speed="27.78" length="10.31" shape="876.55,413.33 873.49,413.29 871.40,413.23 869.30,413.12 866.25,412.93"/>
    </edge>
    <edge id=":1782019879_3" function="internal">
        <lane id=":1782019879_3_0" index="0" speed="18.06" length="3.42" shape="876.55,413.33 873.82,413.23 873.14,413.14"/>
    </edge>
    <edge id=":1782019879_10" function="internal">
        <lane id=":1782019879_10_0" index="0" speed="18.06" length="3.28" shape="873.14,413.14 871.84,412.98 870.63,412.60 870.17,412.06"/>
    </edge>
    <edge id=":1782019879_4" function="internal">
        <lane id=":1782019879_4_0" index="0" speed="8.33" length="9.29" shape="873.45,411.65 871.58,420.75"/>
    </edge>
    <edge id=":1782019879_5" function="internal">
        <lane id=":1782019879_5_0" index="0" speed="18.06" length="4.01" shape="873.45,411.65 873.08,412.38 871.76,412.83 869.97,412.98"/>
    </edge>
    <edge id=":1782019879_11" function="internal">
        <lane id=":1782019879_11_0" index="0" speed="18.06" length="3.72" shape="869.97,412.98 869.48,413.02 866.25,412.93"/>
    </edge>
    <edge id=":1782019879_6" function="internal">
        <lane id=":1782019879_6_0" index="0" speed="8.33" length="2.41" shape="873.45,411.65 872.78,412.98 872.02,413.49"/>
    </edge>
    <edge id=":1782019879_12" function="internal">
        <lane id=":1782019879_12_0" index="0" speed="8.33" length="2.41" shape="872.02,413.49 871.15,413.19 870.17,412.06"/>
    </edge>
    <edge id=":1782019879_7" function="internal">
        <lane id=":1782019879_7_0" index="0" speed="18.06" length="5.14" shape="868.53,419.49 868.85,418.15 868.54,417.15 867.61,416.51 866.05,416.23"/>
    </edge>
    <edge id=":1782019879_8" function="internal">
        <lane id=":1782019879_8_0" index="0" speed="8.33" length="7.61" shape="868.53,419.49 870.17,412.06"/>
    </edge>
    <edge id=":1782019879_9" function="internal">
        <lane id=":1782019879_9_0" index="0" speed="8.33" length="2.41" shape="868.53,419.49 869.77,418.66 870.69,418.60"/>
    </edge>
    <edge id=":1782019879_13" function="internal">
        <lane id=":1782019879_13_0" index="0" speed="8.33" length="2.41" shape="870.69,418.60 871.29,419.29 871.58,420.75"/>
    </edge>
    <edge id=":1782019938_0" function="internal">
        <lane id=":1782019938_0_0" index="0" speed="8.33" length="0.41" shape="841.02,429.42 841.05,429.54 841.07,429.65 841.08,429.75 841.08,429.83"/>
    </edge>
    <edge id=":1782019938_1" function="internal">
        <lane id=":1782019938_1_0" index="0" speed="8.33" length="2.43" shape="841.02,429.42 841.34,427.95 841.96,427.26"/>
    </edge>
    <edge id=":1782019938_4" function="internal">
        <lane id=":1782019938_4_0" index="0" speed="8.33" length="2.43" shape="841.96,427.26 842.89,427.35 844.12,428.21"/>
    </edge>
    <edge id=":1782019938_2" function="internal">
        <lane id=":1782019938_2_0" index="0" speed="8.33" length="2.33" shape="842.41,426.96 843.03,427.01 843.52,427.23 843.89,427.63 844.12,428.21"/>
    </edge>
    <edge id=":1782019938_3" function="internal">
        <lane id=":1782019938_3_0" index="0" speed="8.33" length="2.30" shape="842.41,426.96 843.15,428.18 843.17,429.06"/>
    </edge>
    <edge id=":1782019938_5" function="internal">
        <lane id=":1782019938_5_0" index="0" speed="8.33" length="2.30" shape="843.17,429.06 842.48,429.61 841.08,429.83"/>
    </edge>
    <edge id=":1782020000_0" function="internal">
        <lane id=":1782020000_0_0" index="0" speed="27.78" length="5.27" shape="759.59,350.19 755.02,352.82"/>
    </edge>
    <edge id=":1782020000_1" function="internal">
        <lane id=":1782020000_1_0" index="0" speed="27.78" length="2.67" shape="754.39,352.81 751.72,352.80"/>
    </edge>
    <edge id=":1782020000_2" function="internal">
        <lane id=":1782020000_2_0" index="0" speed="27.78" length="5.60" shape="752.65,347.74 755.02,352.82"/>
    </edge>
    <edge id=":1782020000_3" function="internal">
        <lane id=":1782020000_3_0" index="0" speed="27.78" length="5.00" shape="749.39,348.38 751.72,352.80"/>
    </edge>
    <edge id=":1782020022_0" function="internal">
        <lane id=":1782020022_0_0" index="0" speed="27.78" length="0.71" shape="773.07,330.76 772.38,330.63"/>
    </edge>
    <edge id=":1782020022_1" function="internal">
        <lane id=":1782020022_1_0" index="0" speed="27.78" length="0.23" shape="773.44,327.48 773.21,327.43"/>
    </edge>
    <edge id=":1782020034_0" function="internal">
        <lane id=":1782020034_0_0" index="0" speed="27.78" length="0.10" shape="847.52,445.99 847.52,446.00"/>
    </edge>
    <edge id=":1782020034_1" function="internal">
        <lane id=":1782020034_1_0" index="0" speed="27.78" length="0.10" shape="850.82,445.97 850.82,445.97"/>
    </edge>
    <edge id=":1782020044_0" function="internal">
        <lane id=":1782020044_0_0" index="0" speed="27.78" length="4.67" shape="819.74,337.36 815.10,337.88"/>
    </edge>
    <edge id=":1782020044_1" function="internal">
        <lane id=":1782020044_1_0" index="0" speed="27.78" length="3.58" shape="819.24,334.10 815.68,334.53"/>
    </edge>
    <edge id=":1782020044_2" function="internal">
        <lane id=":1782020044_2_0" index="0" speed="27.78" length="5.17" shape="819.24,334.10 815.20,337.32"/>
    </edge>
    <edge id=":1782020044_3" function="internal">
        <lane id=":1782020044_3_0" index="0" speed="27.78" length="3.48" shape="819.24,334.10 815.76,334.07"/>
    </edge>
    <edge id=":1782020061_0" function="internal">
        <lane id=":1782020061_0_0" index="0" speed="8.33" length="0.14" shape="830.11,448.84 830.11,448.70"/>
    </edge>
    <edge id=":1782020061_1" function="internal">
        <lane id=":1782020061_1_0" index="0" speed="8.33" length="2.41" shape="830.11,448.84 830.88,447.57 831.68,447.11"/>
    </edge>
    <edge id=":1782020061_4" function="internal">
        <lane id=":1782020061_4_0" index="0" speed="8.33" length="2.41" shape="831.68,447.11 832.52,447.49 833.41,448.68"/>
    </edge>
    <edge id=":1782020061_2" function="internal">
        <lane id=":1782020061_2_0" index="0" speed="8.33" length="0.10" shape="833.41,448.64 833.41,448.68"/>
    </edge>
    <edge id=":1782020061_3" function="internal">
        <lane id=":1782020061_3_0" index="0" speed="8.33" length="2.41" shape="833.41,448.64 832.60,449.89 831.79,450.32"/>
    </edge>
    <edge id=":1782020061_5" function="internal">
        <lane id=":1782020061_5_0" index="0" speed="8.33" length="2.41" shape="831.79,450.32 830.95,449.92 830.11,448.70"/>
    </edge>
    <edge id=":1782020077_0" function="internal">
        <lane id=":1782020077_0_0" index="0" speed="8.33" length="2.80" shape="863.98,380.68 863.77,379.76 863.42,379.19 862.93,378.99 862.30,379.14"/>
    </edge>
    <edge id=":1782020077_1" function="internal">
        <lane id=":1782020077_1_0" index="0" speed="8.33" length="2.40" shape="863.98,380.68 864.65,379.36 865.42,378.85"/>
    </edge>
    <edge id=":1782020077_4" function="internal">
        <lane id=":1782020077_4_0" index="0" speed="8.33" length="2.40" shape="865.42,378.85 866.28,379.17 867.24,380.29"/>
    </edge>
    <edge id=":1782020077_2" function="internal">
        <lane id=":1782020077_2_0" index="0" speed="8.33" length="7.64" shape="862.13,375.81 864.16,376.01 865.69,376.83 866.72,378.25 867.24,380.29"/>
    </edge>
    <edge id=":1782020077_3" function="internal">
        <lane id=":1782020077_3_0" index="0" speed="8.33" length="2.43" shape="862.13,375.81 863.42,376.58 863.88,377.39"/>
    </edge>
    <edge id=":1782020077_5" function="internal">
        <lane id=":1782020077_5_0" index="0" speed="8.33" length="2.43" shape="863.88,377.39 863.50,378.24 862.30,379.14"/>
    </edge>
    <edge id=":1782020082_0" function="internal">
        <lane id=":1782020082_0_0" index="0" speed="8.33" length="4.82" shape="866.67,372.37 865.79,373.57 864.95,373.95 864.15,373.50 863.37,372.23"/>
    </edge>
    <edge id=":1782020093_0" function="internal">
        <lane id=":1782020093_0_0" index="0" speed="27.78" length="6.16" shape="754.82,409.53 760.03,412.82"/>
    </edge>
    <edge id=":1782020093_1" function="internal">
        <lane id=":1782020093_1_0" index="0" speed="27.78" length="7.07" shape="751.52,409.51 756.95,414.04"/>
    </edge>
    <edge id=":1782020093_2" function="internal">
        <lane id=":1782020093_2_0" index="0" speed="25.00" length="5.52" shape="751.52,409.51 753.20,414.77"/>
    </edge>
    <edge id=":1782020107_0" function="internal">
        <lane id=":1782020107_0_0" index="0" speed="27.78" length="0.20" shape="847.54,552.26 847.54,552.05"/>
    </edge>
    <edge id=":1782020107_1" function="internal">
        <lane id=":1782020107_1_0" index="0" speed="27.78" length="0.10" shape="850.84,552.23 850.84,552.23"/>
    </edge>
    <edge id=":1782020200_0" function="internal">
        <lane id=":1782020200_0_0" index="0" speed="8.33" length="0.85" shape="833.54,456.68 833.49,457.53"/>
    </edge>
    <edge id=":1782020200_1" function="internal">
        <lane id=":1782020200_1_0" index="0" speed="8.33" length="2.41" shape="833.54,456.68 832.74,457.93 831.92,458.36"/>
    </edge>
    <edge id=":1782020200_4" function="internal">
        <lane id=":1782020200_4_0" index="0" speed="8.33" length="2.41" shape="831.92,458.36 831.09,457.96 830.25,456.73"/>
    </edge>
    <edge id=":1782020200_2" function="internal">
        <lane id=":1782020200_2_0" index="0" speed="8.33" length="0.28" shape="830.23,457.01 830.25,456.73"/>
    </edge>
    <edge id=":1782020200_3" function="internal">
        <lane id=":1782020200_3_0" index="0" speed="8.33" length="2.41" shape="830.23,457.01 831.23,455.92 832.11,455.64"/>
    </edge>
    <edge id=":1782020200_5" function="internal">
        <lane id=":1782020200_5_0" index="0" speed="8.33" length="2.41" shape="832.11,455.64 832.86,456.18 833.49,457.53"/>
    </edge>
    <edge id=":1782020262_0" function="internal">
        <lane id=":1782020262_0_0" index="0" speed="27.78" length="0.10" shape="759.81,349.87 759.76,349.87"/>
    </edge>
    <edge id=":1782020262_1" function="internal">
        <lane id=":1782020262_1_0" index="0" speed="27.78" length="1.17" shape="757.38,347.65 756.70,348.60"/>
    </edge>
    <edge id=":1782020287_0" function="internal">
        <lane id=":1782020287_0_0" index="0" speed="8.33" length="8.73" shape="858.54,448.49 862.48,440.71"/>
    </edge>
    <edge id=":1782020287_1" function="internal">
        <lane id=":1782020287_1_0" index="0" speed="8.33" length="0.94" shape="858.54,448.49 859.45,448.28"/>
    </edge>
    <edge id=":1782020287_4" function="internal">
        <lane id=":1782020287_4_0" index="0" speed="8.33" length="2.10" shape="859.45,448.28 860.00,448.45 860.20,448.99 860.05,449.92"/>
    </edge>
    <edge id=":1782020287_2" function="internal">
        <lane id=":1782020287_2_0" index="0" speed="8.33" length="18.44" shape="859.37,449.94 859.41,443.03 859.54,440.72 859.75,443.02 860.05,449.92"/>
    </edge>
    <edge id=":1782020287_3" function="internal">
        <lane id=":1782020287_3_0" index="0" speed="8.33" length="7.11" shape="859.37,449.94 856.69,446.47 856.31,443.77"/>
    </edge>
    <edge id=":1782020287_5" function="internal">
        <lane id=":1782020287_5_0" index="0" speed="8.33" length="7.11" shape="856.31,443.77 858.24,441.85 862.48,440.71"/>
    </edge>
    <edge id=":1782020291_0" function="internal">
        <lane id=":1782020291_0_0" index="0" speed="27.78" length="0.35" shape="842.84,340.38 842.59,340.14"/>
    </edge>
    <edge id=":1782020291_1" function="internal">
        <lane id=":1782020291_1_0" index="0" speed="27.78" length="1.06" shape="845.39,338.28 844.63,337.54"/>
    </edge>
    <edge id=":1782020296_0" function="internal">
        <lane id=":1782020296_0_0" index="0" speed="8.33" length="0.10" shape="861.11,321.88 861.11,321.88"/>
    </edge>
    <edge id=":1782020296_1" function="internal">
        <lane id=":1782020296_1_0" index="0" speed="8.33" length="2.41" shape="861.11,321.88 860.28,323.11 859.45,323.52"/>
    </edge>