<?xml version="1.0" encoding="UTF-8"?>

<!-- generated on 03/12/13 01:44:41 by SUMO netconvert Version 0.16.0
<?xml version="1.0" encoding="UTF-8"?>

<configuration xmlns:xsi="http://www.w3.org/2001/XMLSchema-instance" xsi:noNamespaceSchemaLocation="http://sumo.sf.net/xsd/netconvertConfiguration.xsd">

    <input>
        <sumo-net-file value="G:\Kings\OSTGui\output\0.6548237845084736osm.net.xml"/>
    </input>

    <output>
        <output-file value="G:\Kings\OSTGui\output\0.6548237845084736osm.net.xml"/>
    </output>

    <tls_building>
        <tls.set value="1696030873,914438342,:894703753_4_0,914309925,25542502,21392086,12354831,:914310007_4_0,25510323,:523909008_5_0,1166035217,25472465,:1953721150_16_0,2010574269,1635924977,1660480799,:914309963_11_0,:109753_6_0,:543629915_4_0,:25625474_11_0,:523909008_4_0,:1232213820_10_0,914309884,914309940,914309954,:543629915_5_0,1646306106,894703773,:1166035211_16_0,894703753,:914438342_4_0,:25472893_13_0,:914310007_5_0,25468775,:523909006_4_0,1660481037,1660480920,1646306102,1646427990,1696027870,48858960,523909004,:266325461_13_0,1958044137,1958044110,:469760383_16_0,:1733438945_16_0,25472941,915410122,915410130,25625479,25472346,:1166035213_12_0,1646381494,1646306104,:2010242096_5_0,25472893,1166035211,1166035230,:1646306109_5_0,:1166035232_18_0,1646306197,25472348,:1646306109_4_0,:1953721150_17_0,:1166035217_4_0,:914309963_9_0,:1166035232_19_0,25510322,:1166035232_16_0,1259836789,914309887,25472464,25472946,25625474,1646306109,25472350,1733438945,:914309887_11_0,48858958,523909006,:1166035213_11_0,1696030874,:1166035219_16_0,32925453,:1166035232_17_0,266325461,:1733438945_19_0,1232213821,:914309963_10_0,:1953721130_16_0,:266325461_11_0,914309999,254780526,:25510321_8_0,:25468775_6_0,:25510322_16_0,975660514,1166035213,25473290,:1635924995_5_0,:1232213820_11_0,:914309887_10_0,:914309896_11_0,:2010574269_37_0,1646306203,:1166035211_17_0,60977981,32925454,:1635924995_4_0,:914438342_5_0,:33507260_5_0,:469760383_17_0,1635924995,1166035214,523909011,:2010242100_5_0,:1232213820_9_0,1953721150,25625469,469760383,:1166035219_17_0,523909008,:2010574295_4_0,:1733438945_18_0,1646381531,:914309896_10_0,:1635924977_5_0,:2010242096_4_0,:25468775_7_0,543629929,2010242096,:1166035213_13_0,:1733438945_17_0,:1646306203_4_0,:1646306106_11_0,:1166035217_5_0,:914309982_9_0,33507260,:914309887_9_0,:1646306106_10_0,1646381533,1166035219,1660481194,:25510322_17_0,914309896,1660481175,:914309982_10_0,:266325461_12_0,:1635924977_4_0,1660480854,:2010574295_5_0,21392084,1646427987,:25472893_12_0,:2010242100_4_0,543629926,543629915,:1646306106_9_0,48858970,:25472893_11_0,25472945,1474321034,2010242093,25472373,:523909006_5_0,1032342694,2010574259,506327775,:25625474_9_0,:543629926_5_0,2010242100,1958044123,914309982"/>
    </tls_building>

    <processing>
        <no-turnarounds value="true"/>
        <offset.disable-normalization value="true"/>
    </processing>

</configuration>
-->

<net version="0.13" xmlns:xsi="http://www.w3.org/2001/XMLSchema-instance" xsi:noNamespaceSchemaLocation="http://sumo.sf.net/xsd/net_file.xsd">

    <location netOffset="-698168.91,-5707969.81" convBoundary="0.00,0.00,3624.02,5775.22" origBoundary="-0.142334,51.487157,-0.092268,51.539963" projParameter="+proj=utm +zone=30 +ellps=WGS84 +datum=WGS84 +units=m +no_defs"/>

    <edge id=":1032342694_0" function="internal">
        <lane id=":1032342694_0_0" index="0" speed="8.33" length="3.34" shape="2128.90,1832.22 2128.70,1831.99 2128.09,1831.86 2127.08,1831.84 2125.67,1831.93"/>
    </edge>
    <edge id=":1032342694_1" function="internal">
        <lane id=":1032342694_1_0" index="0" speed="4.86" length="6.84" shape="2128.90,1832.22 2128.90,1825.38"/>
    </edge>
    <edge id=":1032342694_2" function="internal">
        <lane id=":1032342694_2_0" index="0" speed="8.33" length="2.41" shape="2128.90,1832.22 2129.72,1830.98 2130.54,1830.56"/>
    </edge>
    <edge id=":1032342694_9" function="internal">
        <lane id=":1032342694_9_0" index="0" speed="8.33" length="2.41" shape="2130.54,1830.56 2131.37,1830.97 2132.20,1832.21"/>
    </edge>
    <edge id=":1032342694_3" function="internal">
        <lane id=":1032342694_3_0" index="0" speed="4.86" length="6.83" shape="2132.20,1825.38 2132.20,1832.21"/>
    </edge>
    <edge id=":1032342694_4" function="internal">
        <lane id=":1032342694_4_0" index="0" speed="4.86" length="6.99" shape="2132.20,1825.38 2131.79,1828.04 2130.56,1830.02 2128.90,1831.07"/>
    </edge>
    <edge id=":1032342694_10" function="internal">
        <lane id=":1032342694_10_0" index="0" speed="4.86" length="3.36" shape="2128.90,1831.07 2128.52,1831.31 2125.67,1831.93"/>
    </edge>
    <edge id=":1032342694_5" function="internal">
        <lane id=":1032342694_5_0" index="0" speed="1.39" length="2.41" shape="2132.20,1825.38 2131.37,1826.62 2130.54,1827.03"/>
    </edge>
    <edge id=":1032342694_11" function="internal">
        <lane id=":1032342694_11_0" index="0" speed="1.39" length="2.41" shape="2130.54,1827.03 2129.72,1826.61 2128.90,1825.38"/>
    </edge>
    <edge id=":1032342694_6" function="internal">
        <lane id=":1032342694_6_0" index="0" speed="4.86" length="5.35" shape="2125.40,1828.64 2126.93,1828.32 2128.02,1827.68 2128.68,1826.69 2128.90,1825.38"/>
    </edge>
    <edge id=":1032342694_7" function="internal">
        <lane id=":1032342694_7_0" index="0" speed="8.33" length="3.52" shape="2125.40,1828.64 2128.37,1828.65 2128.90,1828.80"/>
    </edge>
    <edge id=":1032342694_12" function="internal">
        <lane id=":1032342694_12_0" index="0" speed="8.33" length="5.23" shape="2128.90,1828.80 2130.49,1829.24 2131.77,1830.43 2132.20,1832.21"/>
    </edge>
    <edge id=":1032342694_8" function="internal">
        <lane id=":1032342694_8_0" index="0" speed="8.33" length="2.41" shape="2125.40,1828.64 2126.70,1829.36 2127.18,1830.14"/>
    </edge>
    <edge id=":1032342694_13" function="internal">
        <lane id=":1032342694_13_0" index="0" speed="8.33" length="2.41" shape="2127.18,1830.14 2126.84,1831.00 2125.67,1831.93"/>
    </edge>
    <edge id=":107733_0" function="internal">
        <lane id=":107733_0_0" index="0" speed="13.41" length="12.37" shape="2112.88,1930.37 2109.60,1942.30"/>
    </edge>
    <edge id=":107733_1" function="internal">
        <lane id=":107733_1_0" index="0" speed="13.41" length="14.59" shape="2110.31,1928.31 2106.30,1942.34"/>
    </edge>
    <edge id=":107733_2" function="internal">
        <lane id=":107733_2_0" index="0" speed="13.41" length="13.98" shape="2107.03,1928.61 2108.05,1932.64 2108.84,1935.39 2109.37,1938.18 2109.60,1942.30"/>
    </edge>
    <edge id=":107733_3" function="internal">
        <lane id=":107733_3_0" index="0" speed="13.41" length="13.31" shape="2103.81,1929.32 2104.78,1933.15 2105.55,1935.77 2106.07,1938.42 2106.30,1942.34"/>
    </edge>
    <edge id=":107734_0" function="internal">
        <lane id=":107734_0_0" index="0" speed="13.41" length="15.75" shape="2109.86,1961.11 2110.25,1965.63 2111.40,1968.61 2113.48,1971.22 2116.67,1974.65"/>
    </edge>
    <edge id=":107734_1" function="internal">
        <lane id=":107734_1_0" index="0" speed="13.41" length="16.22" shape="2109.86,1961.11 2109.76,1965.94 2109.84,1969.42 2110.87,1972.52 2113.65,1976.23"/>
    </edge>
    <edge id=":107734_2" function="internal">
        <lane id=":107734_2_0" index="0" speed="13.41" length="16.24" shape="2109.86,1961.11 2109.89,1965.93 2109.82,1969.23 2109.70,1972.52 2109.55,1977.35"/>
    </edge>
    <edge id=":107734_3" function="internal">
        <lane id=":107734_3_0" index="0" speed="13.41" length="16.12" shape="2106.56,1961.15 2106.59,1965.94 2106.52,1969.21 2106.40,1972.48 2106.25,1977.26"/>
    </edge>
    <edge id=":107735_0" function="internal">
        <lane id=":107735_0_0" index="0" speed="13.41" length="10.61" shape="2127.44,1981.43 2130.48,1982.26 2132.65,1982.69 2134.81,1982.57 2137.79,1981.74"/>
    </edge>
    <edge id=":107735_1" function="internal">
        <lane id=":107735_1_0" index="0" speed="13.41" length="11.80" shape="2127.32,1984.81 2130.70,1985.68 2133.12,1986.07 2135.51,1985.83 2138.83,1984.87"/>
    </edge>
    <edge id=":107735_2" function="internal">
        <lane id=":107735_2_0" index="0" speed="13.41" length="11.11" shape="2129.25,1988.54 2131.49,1986.10 2133.03,1984.35 2134.82,1982.99 2137.79,1981.74"/>
    </edge>
    <edge id=":107735_3" function="internal">
        <lane id=":107735_3_0" index="0" speed="13.41" length="9.43" shape="2131.57,1990.89 2138.83,1984.87"/>
    </edge>
    <edge id=":107736_0" function="internal">
        <lane id=":107736_0_0" index="0" speed="13.41" length="4.83" shape="2164.87,1972.71 2167.65,1968.76"/>
    </edge>
    <edge id=":107736_1" function="internal">
        <lane id=":107736_1_0" index="0" speed="13.41" length="5.90" shape="2165.91,1975.84 2169.72,1971.33"/>
    </edge>
    <edge id=":107736_2" function="internal">
        <lane id=":107736_2_0" index="0" speed="13.41" length="4.84" shape="2165.91,1975.84 2170.73,1975.37"/>
    </edge>
    <edge id=":107736_3" function="internal">
        <lane id=":107736_3_0" index="0" speed="13.41" length="5.03" shape="2165.91,1975.84 2170.11,1978.61"/>
    </edge>
    <edge id=":107737_0" function="internal">
        <lane id=":107737_0_0" index="0" speed="13.41" length="6.15" shape="2176.49,1926.49 2172.00,1922.28"/>
    </edge>
    <edge id=":107737_1" function="internal">
        <lane id=":107737_1_0" index="0" speed="13.41" length="4.98" shape="2176.49,1926.49 2175.34,1921.64"/>
    </edge>
    <edge id=":107737_2" function="internal">
        <lane id=":107737_2_0" index="0" speed="13.41" length="5.77" shape="2176.49,1926.49 2179.60,1921.62"/>
    </edge>
    <edge id=":107737_3" function="internal">
        <lane id=":107737_3_0" index="0" speed="13.41" length="5.24" shape="2179.79,1926.67 2182.81,1922.38"/>
    </edge>
    <edge id=":107738_0" function="internal">
        <lane id=":107738_0_0" index="0" speed="13.41" length="3.55" shape="2141.15,1911.42 2137.70,1912.24"/>
    </edge>
    <edge id=":107738_1" function="internal">
        <lane id=":107738_1_0" index="0" speed="13.41" length="4.41" shape="2141.15,1911.42 2137.59,1908.81"/>
    </edge>
    <edge id=":107738_2" function="internal">
        <lane id=":107738_2_0" index="0" speed="13.41" length="3.48" shape="2141.15,1911.42 2137.68,1911.70"/>
    </edge>
    <edge id=":107738_3" function="internal">
        <lane id=":107738_3_0" index="0" speed="13.41" length="3.16" shape="2140.73,1908.15 2137.58,1908.40"/>
    </edge>
    <edge id=":109753_0" function="internal">
        <lane id=":109753_0_0" index="0" speed="13.41" length="0.10" shape="2295.63,2055.72 2295.63,2055.72"/>
    </edge>
    <edge id=":109753_1" function="internal">
        <lane id=":109753_1_0" index="0" speed="13.41" length="0.10" shape="2297.44,2052.97 2297.44,2052.97"/>
    </edge>
    <edge id=":109753_2" function="internal">
        <lane id=":109753_2_0" index="0" speed="13.41" length="2.41" shape="2297.44,2052.97 2296.86,2051.60 2296.97,2050.68"/>
    </edge>
    <edge id=":109753_6" function="internal">
        <lane id=":109753_6_0" index="0" speed="13.41" length="2.41" shape="2296.97,2050.68 2297.77,2050.22 2299.26,2050.21"/>
    </edge>
    <edge id=":109753_3" function="internal">
        <lane id=":109753_3_0" index="0" speed="13.41" length="0.10" shape="2301.07,2047.46 2301.07,2047.46"/>
    </edge>
    <edge id=":109753_4" function="internal">
        <lane id=":109753_4_0" index="0" speed="13.41" length="0.10" shape="2299.26,2050.21 2299.26,2050.21"/>
    </edge>
    <edge id=":109753_5" function="internal">
        <lane id=":109753_5_0" index="0" speed="13.41" length="2.41" shape="2299.26,2050.21 2299.84,2051.58 2299.73,2052.50"/>
    </edge>
    <edge id=":109753_7" function="internal">
        <lane id=":109753_7_0" index="0" speed="13.41" length="2.41" shape="2299.73,2052.50 2298.93,2052.96 2297.44,2052.97"/>
    </edge>
    <edge id=":1166035199_0" function="internal">
        <lane id=":1166035199_0_0" index="0" speed="8.33" length="3.36" shape="2170.51,1894.06 2167.22,1894.73"/>
    </edge>
    <edge id=":1166035199_1" function="internal">
        <lane id=":1166035199_1_0" index="0" speed="6.95" length="3.36" shape="2170.51,1894.06 2167.22,1894.73"/>
    </edge>
    <edge id=":1166035199_2" function="internal">
        <lane id=":1166035199_2_0" index="0" speed="8.33" length="3.30" shape="2170.51,1894.06 2169.74,1890.85"/>
    </edge>
    <edge id=":1166035199_3" function="internal">
        <lane id=":1166035199_3_0" index="0" speed="6.95" length="4.82" shape="2170.51,1894.06 2169.12,1893.55 2168.52,1892.85 2168.73,1891.95 2169.74,1890.85"/>
    </edge>
    <edge id=":1166035199_4" function="internal">
        <lane id=":1166035199_4_0" index="0" speed="6.95" length="3.36" shape="2170.51,1894.06 2167.22,1894.73"/>
    </edge>
    <edge id=":1166035199_5" function="internal">
        <lane id=":1166035199_5_0" index="0" speed="5.56" length="3.36" shape="2170.51,1894.06 2167.22,1894.73"/>
    </edge>
    <edge id=":1166035199_6" function="internal">
        <lane id=":1166035199_6_0" index="0" speed="5.56" length="3.30" shape="2170.51,1894.06 2169.74,1890.85"/>
    </edge>
    <edge id=":1166035199_7" function="internal">
        <lane id=":1166035199_7_0" index="0" speed="6.95" length="2.41" shape="2170.51,1894.06 2169.12,1893.55 2168.52,1892.85"/>
    </edge>
    <edge id=":1166035199_16" function="internal">
        <lane id=":1166035199_16_0" index="0" speed="6.95" length="2.41" shape="2168.52,1892.85 2168.73,1891.95 2169.74,1890.85"/>
    </edge>
    <edge id=":1166035199_8" function="internal">
        <lane id=":1166035199_8_0" index="0" speed="6.95" length="3.12" shape="2166.68,1891.48 2169.74,1890.85"/>
    </edge>
    <edge id=":1166035199_9" function="internal">
        <lane id=":1166035199_9_0" index="0" speed="5.56" length="3.12" shape="2166.68,1891.48 2169.74,1890.85"/>
    </edge>
    <edge id=":1166035199_10" function="internal">
        <lane id=":1166035199_10_0" index="0" speed="5.56" length="3.30" shape="2166.68,1891.48 2167.22,1894.73"/>
    </edge>
    <edge id=":1166035199_11" function="internal">
        <lane id=":1166035199_11_0" index="0" speed="6.95" length="2.41" shape="2166.68,1891.48 2168.04,1892.09 2168.58,1892.84"/>
    </edge>
    <edge id=":1166035199_17" function="internal">
        <lane id=":1166035199_17_0" index="0" speed="6.95" length="2.41" shape="2168.58,1892.84 2168.31,1893.72 2167.22,1894.73"/>
    </edge>
    <edge id=":1166035199_12" function="internal">
        <lane id=":1166035199_12_0" index="0" speed="8.33" length="3.12" shape="2166.68,1891.48 2169.74,1890.85"/>
    </edge>
    <edge id=":1166035199_13" function="internal">
        <lane id=":1166035199_13_0" index="0" speed="6.95" length="3.12" shape="2166.68,1891.48 2169.74,1890.85"/>
    </edge>
    <edge id=":1166035199_14" function="internal">
        <lane id=":1166035199_14_0" index="0" speed="8.33" length="3.30" shape="2166.68,1891.48 2167.22,1894.73"/>
    </edge>
    <edge id=":1166035199_15" function="internal">
        <lane id=":1166035199_15_0" index="0" speed="6.95" length="4.82" shape="2166.68,1891.48 2168.04,1892.09 2168.58,1892.84 2168.31,1893.72 2167.22,1894.73"/>
    </edge>
    <edge id=":1166035201_0" function="internal">
        <lane id=":1166035201_0_0" index="0" speed="8.33" length="6.27" shape="2121.48,1868.23 2119.33,1862.35"/>
    </edge>
    <edge id=":1166035201_1" function="internal">
        <lane id=":1166035201_1_0" index="0" speed="15.27" length="7.94" shape="2121.48,1868.23 2121.40,1866.76 2122.21,1865.42 2123.91,1864.21 2126.50,1863.12"/>
    </edge>
    <edge id=":1166035201_2" function="internal">
        <lane id=":1166035201_2_0" index="0" speed="8.33" length="4.82" shape="2121.48,1868.23 2121.86,1866.80 2122.50,1866.14 2123.42,1866.26 2124.60,1867.17"/>
    </edge>
    <edge id=":1166035201_3" function="internal">
        <lane id=":1166035201_3_0" index="0" speed="15.27" length="5.13" shape="2122.40,1861.15 2123.09,1862.38 2124.00,1863.12 2125.14,1863.37 2126.50,1863.12"/>
    </edge>
    <edge id=":1166035201_4" function="internal">
        <lane id=":1166035201_4_0" index="0" speed="8.33" length="6.40" shape="2122.40,1861.15 2124.60,1867.17"/>
    </edge>
    <edge id=":1166035201_5" function="internal">
        <lane id=":1166035201_5_0" index="0" speed="8.33" length="4.82" shape="2122.40,1861.15 2122.08,1862.60 2121.46,1863.29 2120.55,1863.20 2119.33,1862.35"/>
    </edge>
    <edge id=":1166035201_6" function="internal">
        <lane id=":1166035201_6_0" index="0" speed="15.27" length="5.05" shape="2117.50,1866.38 2118.72,1865.70 2119.43,1864.80 2119.64,1863.68 2119.33,1862.35"/>
    </edge>
    <edge id=":1166035201_7" function="internal">
        <lane id=":1166035201_7_0" index="0" speed="22.22" length="9.57" shape="2117.50,1866.38 2126.50,1863.12"/>
    </edge>
    <edge id=":1166035201_8" function="internal">
        <lane id=":1166035201_8_0" index="0" speed="15.27" length="7.96" shape="2117.50,1866.38 2120.20,1865.55 2122.29,1865.41 2123.75,1865.95 2124.60,1867.17"/>
    </edge>
    <edge id=":1166035211_0" function="internal">
        <lane id=":1166035211_0_0" index="0" speed="8.33" length="3.46" shape="2206.81,1883.03 2203.59,1884.31"/>
    </edge>
    <edge id=":1166035211_1" function="internal">
        <lane id=":1166035211_1_0" index="0" speed="6.95" length="3.46" shape="2206.81,1883.03 2203.59,1884.31"/>
    </edge>
    <edge id=":1166035211_2" function="internal">
        <lane id=":1166035211_2_0" index="0" speed="8.33" length="3.30" shape="2206.81,1883.03 2205.44,1880.02"/>
    </edge>
    <edge id=":1166035211_3" function="internal">
        <lane id=":1166035211_3_0" index="0" speed="6.95" length="2.41" shape="2206.81,1883.03 2205.34,1882.79 2204.62,1882.21"/>
    </edge>
    <edge id=":1166035211_16" function="internal">
        <lane id=":1166035211_16_0" index="0" speed="6.95" length="2.41" shape="2204.62,1882.21 2204.66,1881.29 2205.44,1880.02"/>
    </edge>
    <edge id=":1166035211_4" function="internal">
        <lane id=":1166035211_4_0" index="0" speed="6.95" length="3.46" shape="2206.81,1883.03 2203.59,1884.31"/>
    </edge>
    <edge id=":1166035211_5" function="internal">
        <lane id=":1166035211_5_0" index="0" speed="5.56" length="3.46" shape="2206.81,1883.03 2203.59,1884.31"/>
    </edge>
    <edge id=":1166035211_6" function="internal">
        <lane id=":1166035211_6_0" index="0" speed="5.56" length="3.30" shape="2206.81,1883.03 2205.44,1880.02"/>
    </edge>
    <edge id=":1166035211_7" function="internal">
        <lane id=":1166035211_7_0" index="0" speed="6.95" length="2.41" shape="2206.81,1883.03 2205.34,1882.79 2204.62,1882.21"/>
    </edge>
    <edge id=":1166035211_17" function="internal">
        <lane id=":1166035211_17_0" index="0" speed="6.95" length="2.41" shape="2204.62,1882.21 2204.66,1881.29 2205.44,1880.02"/>
    </edge>
    <edge id=":1166035211_8" function="internal">
        <lane id=":1166035211_8_0" index="0" speed="6.95" length="3.15" shape="2202.52,1881.19 2205.44,1880.02"/>
    </edge>
    <edge id=":1166035211_9" function="internal">
        <lane id=":1166035211_9_0" index="0" speed="5.56" length="3.15" shape="2202.52,1881.19 2205.44,1880.02"/>
    </edge>
    <edge id=":1166035211_10" function="internal">
        <lane id=":1166035211_10_0" index="0" speed="5.56" length="3.30" shape="2202.52,1881.19 2203.59,1884.31"/>
    </edge>
    <edge id=":1166035211_11" function="internal">
        <lane id=":1166035211_11_0" index="0" speed="6.95" length="2.41" shape="2202.52,1881.19 2203.96,1881.57 2204.62,1882.21"/>
    </edge>
    <edge id=":1166035211_18" function="internal">
        <lane id=":1166035211_18_0" index="0" speed="6.95" length="2.41" shape="2204.62,1882.21 2204.49,1883.13 2203.59,1884.31"/>
    </edge>
    <edge id=":1166035211_12" function="internal">
        <lane id=":1166035211_12_0" index="0" speed="8.33" length="3.15" shape="2202.52,1881.19 2205.44,1880.02"/>
    </edge>
    <edge id=":1166035211_13" function="internal">
        <lane id=":1166035211_13_0" index="0" speed="6.95" length="3.15" shape="2202.52,1881.19 2205.44,1880.02"/>
    </edge>
    <edge id=":1166035211_14" function="internal">
        <lane id=":1166035211_14_0" index="0" speed="8.33" length="3.30" shape="2202.52,1881.19 2203.59,1884.31"/>
    </edge>
    <edge id=":1166035211_15" function="internal">
        <lane id=":1166035211_15_0" index="0" speed="6.95" length="2.41" shape="2202.52,1881.19 2203.96,1881.57 2204.62,1882.21"/>
    </edge>
    <edge id=":1166035211_19" function="internal">
        <lane id=":1166035211_19_0" index="0" speed="6.95" length="2.41" shape="2204.62,1882.21 2204.49,1883.13 2203.59,1884.31"/>
    </edge>
    <edge id=":1166035213_0" function="internal">
        <lane id=":1166035213_0_0" index="0" speed="13.41" length="10.18" shape="2252.90,1872.24 2251.00,1874.59 2249.60,1876.11 2248.12,1877.56 2245.99,1879.71"/>
    </edge>
    <edge id=":1166035213_1" function="internal">
        <lane id=":1166035213_1_0" index="0" speed="13.41" length="9.83" shape="2250.30,1870.22 2243.61,1877.42"/>
    </edge>
    <edge id=":1166035213_2" function="internal">
        <lane id=":1166035213_2_0" index="0" speed="9.48" length="5.13" shape="2250.30,1870.22 2248.89,1870.93 2246.34,1870.91 2245.36,1870.70"/>
    </edge>
    <edge id=":1166035213_11" function="internal">
        <lane id=":1166035213_11_0" index="0" speed="9.48" length="7.80" shape="2245.36,1870.70 2242.66,1870.15 2237.84,1868.66"/>
    </edge>
    <edge id=":1166035213_3" function="internal">
        <lane id=":1166035213_3_0" index="0" speed="13.41" length="2.41" shape="2250.30,1870.22 2248.89,1870.68 2247.98,1870.50"/>
    </edge>
    <edge id=":1166035213_12" function="internal">
        <lane id=":1166035213_12_0" index="0" speed="13.41" length="2.41" shape="2247.98,1870.50 2247.59,1869.67 2247.70,1868.19"/>
    </edge>
    <edge id=":1166035213_4" function="internal">
        <lane id=":1166035213_4_0" index="0" speed="9.48" length="1.72" shape="2243.81,1867.23 2244.03,1867.21 2244.31,1867.02 2244.67,1866.67 2245.09,1866.16"/>
    </edge>
    <edge id=":1166035213_5" function="internal">
        <lane id=":1166035213_5_0" index="0" speed="9.48" length="0.21" shape="2243.81,1867.23 2244.00,1867.33"/>
    </edge>
    <edge id=":1166035213_13" function="internal">
        <lane id=":1166035213_13_0" index="0" speed="9.48" length="12.82" shape="2244.00,1867.33 2246.50,1868.80 2247.37,1871.02 2246.40,1873.89 2243.61,1877.42"/>
    </edge>
    <edge id=":1166035213_6" function="internal">
        <lane id=":1166035213_6_0" index="0" speed="5.56" length="6.20" shape="2243.81,1867.23 2242.86,1869.83 2241.54,1870.93 2239.87,1870.54"/>
    </edge>
    <edge id=":1166035213_14" function="internal">
        <lane id=":1166035213_14_0" index="0" speed="5.56" length="2.77" shape="2239.87,1870.54 2237.84,1868.66"/>
    </edge>
    <edge id=":1166035213_7" function="internal">
        <lane id=":1166035213_7_0" index="0" speed="9.48" length="5.64" shape="2238.85,1872.85 2239.83,1871.51 2239.99,1870.36 2239.32,1869.41 2237.84,1868.66"/>
    </edge>
    <edge id=":1166035213_8" function="internal">
        <lane id=":1166035213_8_0" index="0" speed="13.41" length="9.15" shape="2238.85,1872.85 2245.09,1866.16"/>
    </edge>
    <edge id=":1166035213_9" function="internal">
        <lane id=":1166035213_9_0" index="0" speed="13.41" length="9.49" shape="2241.23,1875.14 2247.70,1868.19"/>
    </edge>
    <edge id=":1166035213_10" function="internal">
        <lane id=":1166035213_10_0" index="0" speed="13.41" length="2.41" shape="2241.23,1875.14 2242.68,1874.82 2243.57,1875.09"/>
    </edge>
    <edge id=":1166035213_15" function="internal">
        <lane id=":1166035213_15_0" index="0" speed="13.41" length="2.41" shape="2243.57,1875.09 2243.87,1875.96 2243.61,1877.42"/>
    </edge>
    <edge id=":1166035214_0" function="internal">
        <lane id=":1166035214_0_0" index="0" speed="1.39" length="4.82" shape="2056.71,1818.63 2055.40,1819.34 2054.48,1819.32 2053.94,1818.57 2053.79,1817.09"/>
    </edge>
    <edge id=":1166035217_0" function="internal">
        <lane id=":1166035217_0_0" index="0" speed="4.86" length="0.61" shape="2169.75,1823.23 2169.58,1822.65"/>
    </edge>
    <edge id=":1166035217_1" function="internal">
        <lane id=":1166035217_1_0" index="0" speed="8.33" length="2.41" shape="2169.75,1823.23 2170.10,1821.79 2170.74,1821.12"/>
    </edge>
    <edge id=":1166035217_4" function="internal">
        <lane id=":1166035217_4_0" index="0" speed="8.33" length="2.41" shape="2170.74,1821.12 2171.65,1821.23 2172.85,1822.11"/>
    </edge>
    <edge id=":1166035217_2" function="internal">
        <lane id=":1166035217_2_0" index="0" speed="4.86" length="0.20" shape="2172.79,1821.92 2172.85,1822.11"/>
    </edge>
    <edge id=":1166035217_3" function="internal">
        <lane id=":1166035217_3_0" index="0" speed="1.39" length="2.41" shape="2172.79,1821.92 2172.26,1823.31 2171.55,1823.89"/>
    </edge>
    <edge id=":1166035217_5" function="internal">
        <lane id=":1166035217_5_0" index="0" speed="1.39" length="2.41" shape="2171.55,1823.89 2170.65,1823.67 2169.58,1822.65"/>
    </edge>
    <edge id=":1166035219_0" function="internal">
        <lane id=":1166035219_0_0" index="0" speed="8.33" length="3.76" shape="2231.00,1868.42 2227.58,1869.99"/>
    </edge>
    <edge id=":1166035219_1" function="internal">
        <lane id=":1166035219_1_0" index="0" speed="6.95" length="3.76" shape="2231.00,1868.42 2227.58,1869.99"/>
    </edge>
    <edge id=":1166035219_2" function="internal">
        <lane id=":1166035219_2_0" index="0" speed="8.33" length="3.30" shape="2231.00,1868.42 2230.49,1865.16"/>
    </edge>
    <edge id=":1166035219_3" function="internal">
        <lane id=":1166035219_3_0" index="0" speed="6.95" length="2.41" shape="2231.00,1868.42 2229.65,1867.79 2229.11,1867.04"/>
    </edge>
    <edge id=":1166035219_16" function="internal">
        <lane id=":1166035219_16_0" index="0" speed="6.95" length="2.41" shape="2229.11,1867.04 2229.40,1866.16 2230.49,1865.16"/>
    </edge>
    <edge id=":1166035219_4" function="internal">
        <lane id=":1166035219_4_0" index="0" speed="6.95" length="3.76" shape="2231.00,1868.42 2227.58,1869.99"/>
    </edge>
    <edge id=":1166035219_5" function="internal">
        <lane id=":1166035219_5_0" index="0" speed="5.56" length="3.76" shape="2231.00,1868.42 2227.58,1869.99"/>
    </edge>
    <edge id=":1166035219_6" function="internal">
        <lane id=":1166035219_6_0" index="0" speed="5.56" length="3.30" shape="2231.00,1868.42 2230.49,1865.16"/>
    </edge>
    <edge id=":1166035219_7" function="internal">
        <lane id=":1166035219_7_0" index="0" speed="6.95" length="2.41" shape="2231.00,1868.42 2229.65,1867.79 2229.11,1867.04"/>
    </edge>
    <edge id=":1166035219_17" function="internal">
        <lane id=":1166035219_17_0" index="0" speed="6.95" length="2.41" shape="2229.11,1867.04 2229.40,1866.16 2230.49,1865.16"/>
    </edge>
    <edge id=":1166035219_8" function="internal">
        <lane id=":1166035219_8_0" index="0" speed="6.95" length="5.57" shape="2225.44,1867.48 2230.49,1865.16"/>
    </edge>
    <edge id=":1166035219_9" function="internal">
        <lane id=":1166035219_9_0" index="0" speed="5.56" length="5.57" shape="2225.44,1867.48 2230.49,1865.16"/>
    </edge>
    <edge id=":1166035219_10" function="internal">
        <lane id=":1166035219_10_0" index="0" speed="5.56" length="3.30" shape="2225.44,1867.48 2227.58,1869.99"/>
    </edge>
    <edge id=":1166035219_11" function="internal">
        <lane id=":1166035219_11_0" index="0" speed="6.95" length="2.41" shape="2225.44,1867.48 2226.91,1867.30 2227.76,1867.66"/>
    </edge>
    <edge id=":1166035219_18" function="internal">
        <lane id=":1166035219_18_0" index="0" speed="6.95" length="2.41" shape="2227.76,1867.66 2227.98,1868.56 2227.58,1869.99"/>
    </edge>
    <edge id=":1166035219_12" function="internal">
        <lane id=":1166035219_12_0" index="0" speed="8.33" length="5.57" shape="2225.44,1867.48 2230.49,1865.16"/>
    </edge>
    <edge id=":1166035219_13" function="internal">
        <lane id=":1166035219_13_0" index="0" speed="6.95" length="5.57" shape="2225.44,1867.48 2230.49,1865.16"/>
    </edge>
    <edge id=":1166035219_14" function="internal">
        <lane id=":1166035219_14_0" index="0" speed="8.33" length="3.30" shape="2225.44,1867.48 2227.58,1869.99"/>
    </edge>
    <edge id=":1166035219_15" function="internal">
        <lane id=":1166035219_15_0" index="0" speed="6.95" length="2.41" shape="2225.44,1867.48 2226.91,1867.30 2227.76,1867.66"/>
    </edge>
    <edge id=":1166035219_19" function="internal">
        <lane id=":1166035219_19_0" index="0" speed="6.95" length="2.41" shape="2227.76,1867.66 2227.98,1868.56 2227.58,1869.99"/>
    </edge>
    <edge id=":1166035225_0" function="internal">
        <lane id=":1166035225_0_0" index="0" speed="9.48" length="7.14" shape="2127.81,1911.99 2126.61,1912.29 2125.32,1913.14 2123.96,1914.52 2122.50,1916.45"/>
    </edge>
    <edge id=":1166035225_1" function="internal">
        <lane id=":1166035225_1_0" index="0" speed="13.41" length="9.69" shape="2127.81,1911.99 2118.23,1910.54"/>
    </edge>
    <edge id=":1166035225_2" function="internal">
        <lane id=":1166035225_2_0" index="0" speed="13.41" length="9.40" shape="2128.33,1908.67 2119.03,1907.34"/>
    </edge>
    <edge id=":1166035225_3" function="internal">
        <lane id=":1166035225_3_0" index="0" speed="9.48" length="7.62" shape="2128.33,1908.67 2126.25,1908.88 2124.38,1909.36 2122.73,1910.13 2121.30,1911.18"/>
    </edge>
    <edge id=":1166035225_4" function="internal">