<?xml version="1.0" encoding="UTF-8"?>

<!-- generated on 03/12/13 01:42:27 by SUMO netconvert Version 0.16.0
<?xml version="1.0" encoding="UTF-8"?>

<configuration xmlns:xsi="http://www.w3.org/2001/XMLSchema-instance" xsi:noNamespaceSchemaLocation="http://sumo.sf.net/xsd/netconvertConfiguration.xsd">

    <input>
        <sumo-net-file value="G:\Kings\OSTGui\output\0.725799455737054osm.net.xml"/>
    </input>

    <output>
        <output-file value="G:\Kings\OSTGui\output\0.725799455737054osm.net.xml"/>
    </output>

    <tls_building>
        <tls.set value=":108058_16_0,:108058_19_0,9789816,1227938940,25257657,:108262_12_0,26652119,:677445941_11_0,:25257643_10_0,:26652131_11_0,:108061_16_0,25257616,1947324461,:26846364_5_0,1938580072,:107813_10_0,:1227938943_21_0,26559618,466926155,466926164,1322321552,108061,:677445941_9_0,:1663004159_5_0,9512919,466926159,1663004118,107810,21665361,25473285,:26559368_4_0,26241038,:9512917_10_0,:108060_6_0,26591525,25473300,1322321619,1322321545,:107810_4_0,:1493458889_11_0,:108263_15_0,107805,:26559616_10_0,:26651414_12_0,:26651413_10_0,21665724,:26652129_12_0,26652131,677445936,26559616,:1938580072_11_0,26652126,466926169,25473284,:26652129_11_0,1663004143,:108059_10_0"/>
    </tls_building>

    <processing>
        <no-turnarounds value="true"/>
        <offset.disable-normalization value="true"/>
    </processing>

</configuration>
-->

<net version="0.13" xmlns:xsi="http://www.w3.org/2001/XMLSchema-instance" xsi:noNamespaceSchemaLocation="http://sumo.sf.net/xsd/net_file.xsd">

    <location netOffset="-697970.34,-5710112.94" convBoundary="0.00,0.00,1637.70,1730.62" origBoundary="-0.146225,51.507241,-0.123195,51.522959" projParameter="+proj=utm +zone=30 +ellps=WGS84 +datum=WGS84 +units=m +no_defs"/>

    <edge id=":107793_0" function="internal">
        <lane id=":107793_0_0" index="0" speed="15.27" length="5.19" shape="1051.16,444.21 1049.85,443.56 1048.71,443.54 1047.74,444.13 1046.92,445.33"/>
    </edge>
    <edge id=":107793_1" function="internal">
        <lane id=":107793_1_0" index="0" speed="22.22" length="7.84" shape="1051.16,444.21 1048.79,442.42 1047.24,440.85 1046.48,439.50 1046.53,438.38"/>
    </edge>
    <edge id=":107793_2" function="internal">
        <lane id=":107793_2_0" index="0" speed="15.27" length="6.19" shape="1049.55,439.72 1046.92,445.33"/>
    </edge>
    <edge id=":107793_3" function="internal">
        <lane id=":107793_3_0" index="0" speed="22.22" length="2.41" shape="1049.55,439.72 1048.29,440.52 1047.37,440.56"/>
    </edge>
    <edge id=":107793_6" function="internal">
        <lane id=":107793_6_0" index="0" speed="22.22" length="2.41" shape="1047.37,440.56 1046.78,439.84 1046.53,438.38"/>
    </edge>
    <edge id=":107793_4" function="internal">
        <lane id=":107793_4_0" index="0" speed="15.27" length="6.09" shape="1043.95,443.89 1046.53,438.38"/>
    </edge>
    <edge id=":107793_5" function="internal">
        <lane id=":107793_5_0" index="0" speed="8.33" length="4.82" shape="1043.95,443.89 1045.23,443.14 1046.16,443.13 1046.72,443.86 1046.92,445.33"/>
    </edge>
    <edge id=":107797_0" function="internal">
        <lane id=":107797_0_0" index="0" speed="22.22" length="9.66" shape="1021.21,242.43 1014.20,235.79"/>
    </edge>
    <edge id=":107797_1" function="internal">
        <lane id=":107797_1_0" index="0" speed="25.00" length="7.80" shape="1021.21,242.43 1020.34,241.36 1020.18,239.82 1020.73,237.81 1022.00,235.34"/>
    </edge>
    <edge id=":107797_2" function="internal">
        <lane id=":107797_2_0" index="0" speed="22.22" length="4.82" shape="1021.21,242.43 1020.65,241.05 1020.77,240.14 1021.58,239.69 1023.07,239.70"/>
    </edge>
    <edge id=":107797_3" function="internal">
        <lane id=":107797_3_0" index="0" speed="25.00" length="6.32" shape="1014.19,241.36 1015.18,239.57 1015.52,238.04 1015.19,236.78 1014.20,235.79"/>
    </edge>
    <edge id=":107797_4" function="internal">
        <lane id=":107797_4_0" index="0" speed="27.78" length="9.19" shape="1014.19,241.36 1019.18,233.64"/>
    </edge>
    <edge id=":107797_5" function="internal">
        <lane id=":107797_5_0" index="0" speed="27.78" length="9.40" shape="1016.90,243.24 1022.00,235.34"/>
    </edge>
    <edge id=":107797_6" function="internal">
        <lane id=":107797_6_0" index="0" speed="25.00" length="3.56" shape="1016.90,243.24 1018.65,241.05 1019.24,240.56"/>
    </edge>
    <edge id=":107797_7" function="internal">
        <lane id=":107797_7_0" index="0" speed="25.00" length="4.26" shape="1019.24,240.56 1020.26,239.73 1021.73,239.28 1023.07,239.70"/>
    </edge>
    <edge id=":107798_0" function="internal">
        <lane id=":107798_0_0" index="0" speed="20.59" length="8.80" shape="941.15,332.52 943.52,332.94 945.68,332.80 947.63,332.09 949.37,330.82"/>
    </edge>
    <edge id=":107798_1" function="internal">
        <lane id=":107798_1_0" index="0" speed="20.59" length="12.23" shape="940.25,335.70 943.50,336.26 946.48,336.03 949.19,335.02 951.64,333.21"/>
    </edge>
    <edge id=":107798_2" function="internal">
        <lane id=":107798_2_0" index="0" speed="17.81" length="12.61" shape="940.25,335.70 944.07,336.50 946.94,336.70 949.58,336.80 952.72,337.33"/>
    </edge>
    <edge id=":107798_3" function="internal">
        <lane id=":107798_3_0" index="0" speed="25.00" length="12.59" shape="940.99,339.82 943.72,338.15 946.12,337.03 948.63,335.65 951.64,333.21"/>
    </edge>
    <edge id=":107798_4" function="internal">
        <lane id=":107798_4_0" index="0" speed="22.22" length="12.40" shape="940.99,339.82 943.81,338.15 946.70,337.17 949.67,336.90 952.72,337.33"/>
    </edge>
    <edge id=":107799_0" function="internal">
        <lane id=":107799_0_0" index="0" speed="22.22" length="5.27" shape="1023.40,353.37 1022.79,354.73 1022.82,355.88 1023.49,356.80 1024.80,357.51"/>
    </edge>
    <edge id=":107799_1" function="internal">
        <lane id=":107799_1_0" index="0" speed="22.22" length="6.20" shape="1018.94,355.51 1024.80,357.51"/>
    </edge>
    <edge id=":107800_0" function="internal">
        <lane id=":107800_0_0" index="0" speed="22.22" length="6.21" shape="1028.31,358.80 1034.15,360.90"/>
    </edge>
    <edge id=":107800_1" function="internal">
        <lane id=":107800_1_0" index="0" speed="22.22" length="5.18" shape="1028.31,358.80 1029.59,359.49 1030.27,360.41 1030.36,361.54 1029.87,362.90"/>
    </edge>
    <edge id=":107801_0" function="internal">
        <lane id=":107801_0_0" index="0" speed="22.22" length="6.27" shape="1074.80,277.10 1073.51,276.48 1072.24,276.61 1070.99,277.49 1069.76,279.11"/>
    </edge>
    <edge id=":107801_1" function="internal">
        <lane id=":107801_1_0" index="0" speed="22.22" length="6.50" shape="1074.80,277.10 1068.74,274.76"/>
    </edge>
    <edge id=":107801_2" function="internal">
        <lane id=":107801_2_0" index="0" speed="22.22" length="9.41" shape="1074.90,271.23 1069.76,279.11"/>
    </edge>
    <edge id=":107801_3" function="internal">
        <lane id=":107801_3_0" index="0" speed="22.22" length="7.82" shape="1074.90,271.23 1073.15,273.42 1071.54,274.74 1070.07,275.18 1068.74,274.76"/>
    </edge>
    <edge id=":107801_4" function="internal">
        <lane id=":107801_4_0" index="0" speed="22.22" length="4.08" shape="1070.59,272.03 1071.47,273.10 1071.62,274.64 1071.30,275.75"/>
    </edge>
    <edge id=":107801_6" function="internal">
        <lane id=":107801_6_0" index="0" speed="22.22" length="3.71" shape="1071.30,275.75 1071.05,276.64 1069.76,279.11"/>
    </edge>
    <edge id=":107801_5" function="internal">
        <lane id=":107801_5_0" index="0" speed="22.22" length="2.41" shape="1070.59,272.03 1071.15,273.41 1071.03,274.32"/>
    </edge>
    <edge id=":107801_7" function="internal">
        <lane id=":107801_7_0" index="0" speed="22.22" length="2.41" shape="1071.03,274.32 1070.22,274.77 1068.74,274.76"/>
    </edge>
    <edge id=":107802_0" function="internal">
        <lane id=":107802_0_0" index="0" speed="25.00" length="5.00" shape="1066.40,154.93 1066.93,153.67 1066.92,152.54 1066.39,151.54 1065.32,150.68"/>
    </edge>
    <edge id=":107802_1" function="internal">
        <lane id=":107802_1_0" index="0" speed="27.78" length="6.14" shape="1066.40,154.93 1069.64,149.72"/>
    </edge>
    <edge id=":107802_2" function="internal">
        <lane id=":107802_2_0" index="0" speed="27.78" length="6.02" shape="1069.23,156.63 1072.41,151.51"/>
    </edge>
    <edge id=":107805_0" function="internal">
        <lane id=":107805_0_0" index="0" speed="13.41" length="4.82" shape="1174.05,637.84 1174.65,639.20 1174.55,640.12 1173.76,640.59 1172.27,640.62"/>
    </edge>
    <edge id=":107809_0" function="internal">
        <lane id=":107809_0_0" index="0" speed="13.41" length="10.80" shape="963.81,494.60 961.61,492.27 960.09,490.69 958.52,489.16 956.20,486.94"/>
    </edge>
    <edge id=":107809_1" function="internal">
        <lane id=":107809_1_0" index="0" speed="13.41" length="10.99" shape="966.22,492.35 963.98,489.98 962.43,488.37 960.84,486.80 958.48,484.55"/>
    </edge>
    <edge id=":107809_2" function="internal">
        <lane id=":107809_2_0" index="0" speed="13.41" length="2.41" shape="966.22,492.35 965.97,490.89 966.29,490.02"/>
    </edge>
    <edge id=":107809_10" function="internal">
        <lane id=":107809_10_0" index="0" speed="13.41" length="2.41" shape="966.29,490.02 967.17,489.76 968.62,490.10"/>
    </edge>
    <edge id=":107809_3" function="internal">
        <lane id=":107809_3_0" index="0" speed="17.81" length="10.12" shape="967.30,478.97 966.96,480.74 967.46,482.82 968.82,485.18 971.03,487.84"/>
    </edge>
    <edge id=":107809_4" function="internal">
        <lane id=":107809_4_0" index="0" speed="17.81" length="3.64" shape="967.30,478.97 965.50,482.13"/>
    </edge>
    <edge id=":107809_11" function="internal">
        <lane id=":107809_11_0" index="0" speed="17.81" length="8.80" shape="965.50,482.13 965.05,482.94 962.82,485.19 960.63,485.73 958.48,484.55"/>
    </edge>
    <edge id=":107809_5" function="internal">
        <lane id=":107809_5_0" index="0" speed="13.41" length="11.37" shape="963.02,479.77 965.47,482.10 967.11,483.72 968.71,485.38 971.03,487.84"/>
    </edge>
    <edge id=":107809_6" function="internal">
        <lane id=":107809_6_0" index="0" speed="13.41" length="11.18" shape="960.75,482.16 963.15,484.45 964.77,486.04 966.35,487.68 968.62,490.10"/>
    </edge>
    <edge id=":107809_7" function="internal">
        <lane id=":107809_7_0" index="0" speed="13.41" length="2.41" shape="960.75,482.16 961.08,483.61 960.81,484.49"/>
    </edge>
    <edge id=":107809_12" function="internal">
        <lane id=":107809_12_0" index="0" speed="13.41" length="2.41" shape="960.81,484.49 959.94,484.81 958.48,484.55"/>
    </edge>
    <edge id=":107809_8" function="internal">
        <lane id=":107809_8_0" index="0" speed="17.81" length="9.55" shape="959.53,495.26 959.96,493.41 959.55,491.41 958.30,489.26 956.20,486.94"/>
    </edge>
    <edge id=":107809_9" function="internal">
        <lane id=":107809_9_0" index="0" speed="17.81" length="3.71" shape="959.53,495.26 961.41,492.06"/>
    </edge>
    <edge id=":107809_13" function="internal">
        <lane id=":107809_13_0" index="0" speed="17.81" length="9.00" shape="961.41,492.06 961.87,491.26 964.17,489.07 966.42,488.68 968.62,490.10"/>
    </edge>
    <edge id=":107810_0" function="internal">
        <lane id=":107810_0_0" index="0" speed="22.22" length="5.28" shape="942.84,521.90 944.14,522.64 945.28,522.73 946.27,522.15 947.10,520.91"/>
    </edge>
    <edge id=":107810_1" function="internal">
        <lane id=":107810_1_0" index="0" speed="22.22" length="2.41" shape="942.84,521.90 943.31,523.31 943.12,524.22"/>
    </edge>
    <edge id=":107810_4" function="internal">
        <lane id=":107810_4_0" index="0" speed="22.22" length="2.41" shape="943.12,524.22 942.29,524.61 940.81,524.50"/>
    </edge>
    <edge id=":107810_2" function="internal">
        <lane id=":107810_2_0" index="0" speed="22.22" length="5.86" shape="942.57,529.51 943.00,528.26 942.85,527.01 942.12,525.75 940.81,524.50"/>
    </edge>
    <edge id=":107810_3" function="internal">
        <lane id=":107810_3_0" index="0" speed="22.22" length="9.72" shape="942.57,529.51 947.10,520.91"/>
    </edge>
    <edge id=":107812_0" function="internal">
        <lane id=":107812_0_0" index="0" speed="22.22" length="5.00" shape="875.73,478.83 874.49,478.23 873.34,478.13 872.28,478.54 871.31,479.45"/>
    </edge>
    <edge id=":107812_1" function="internal">
        <lane id=":107812_1_0" index="0" speed="18.06" length="7.04" shape="875.73,478.83 870.25,474.40"/>
    </edge>
    <edge id=":107812_2" function="internal">
        <lane id=":107812_2_0" index="0" speed="22.22" length="2.41" shape="875.73,478.83 875.16,477.45 875.27,476.54"/>
    </edge>
    <edge id=":107812_9" function="internal">
        <lane id=":107812_9_0" index="0" speed="22.22" length="2.41" shape="875.27,476.54 876.07,476.08 877.55,476.07"/>
    </edge>
    <edge id=":107812_3" function="internal">
        <lane id=":107812_3_0" index="0" speed="22.22" length="5.35" shape="876.83,471.38 876.20,472.81 876.11,474.07 876.56,475.15 877.55,476.07"/>
    </edge>
    <edge id=":107812_4" function="internal">
        <lane id=":107812_4_0" index="0" speed="22.22" length="9.78" shape="876.83,471.38 871.31,479.45"/>
    </edge>
    <edge id=":107812_5" function="internal">
        <lane id=":107812_5_0" index="0" speed="18.06" length="8.50" shape="876.83,471.38 875.10,473.78 873.43,475.08 871.81,475.29 870.25,474.40"/>
    </edge>
    <edge id=":107812_6" function="internal">
        <lane id=":107812_6_0" index="0" speed="18.06" length="6.49" shape="872.50,471.99 877.55,476.07"/>
    </edge>
    <edge id=":107812_7" function="internal">
        <lane id=":107812_7_0" index="0" speed="18.06" length="8.33" shape="872.50,471.99 873.44,473.41 873.56,475.12 872.85,477.14 871.31,479.45"/>
    </edge>
    <edge id=":107812_8" function="internal">
        <lane id=":107812_8_0" index="0" speed="13.89" length="4.82" shape="872.50,471.99 872.84,473.44 872.58,474.32 871.72,474.64 870.25,474.40"/>
    </edge>
    <edge id=":107813_0" function="internal">
        <lane id=":107813_0_0" index="0" speed="17.81" length="6.63" shape="905.61,416.80 904.36,415.18 903.25,414.76 902.28,415.54 901.45,417.52"/>
    </edge>
    <edge id=":107813_1" function="internal">
        <lane id=":107813_1_0" index="0" speed="17.81" length="10.66" shape="905.61,416.80 904.03,412.66 903.89,407.99 904.26,406.48"/>
    </edge>
    <edge id=":107813_10" function="internal">
        <lane id=":107813_10_0" index="0" speed="17.81" length="10.16" shape="904.26,406.48 905.17,402.78 907.88,397.04"/>
    </edge>
    <edge id=":107813_2" function="internal">
        <lane id=":107813_2_0" index="0" speed="13.41" length="2.41" shape="908.45,415.13 908.53,413.64 909.03,412.87"/>
    </edge>
    <edge id=":107813_11" function="internal">
        <lane id=":107813_11_0" index="0" speed="13.41" length="2.41" shape="909.03,412.87 909.95,412.80 911.29,413.45"/>
    </edge>
    <edge id=":107813_3" function="internal">
        <lane id=":107813_3_0" index="0" speed="17.81" length="7.03" shape="903.14,397.74 904.09,399.39 905.20,399.82 906.47,399.04 907.88,397.04"/>
    </edge>
    <edge id=":107813_4" function="internal">
        <lane id=":107813_4_0" index="0" speed="13.41" length="17.99" shape="903.14,397.74 905.58,402.35 908.15,404.99 910.96,407.51 914.13,411.77"/>
    </edge>
    <edge id=":107813_5" function="internal">
        <lane id=":107813_5_0" index="0" speed="13.41" length="18.51" shape="900.06,398.94 902.57,403.70 905.18,406.44 908.04,409.05 911.29,413.45"/>
    </edge>
    <edge id=":107813_6" function="internal">
        <lane id=":107813_6_0" index="0" speed="17.81" length="19.02" shape="900.06,398.94 901.91,404.83 902.56,409.69 902.31,413.82 901.45,417.52"/>
    </edge>
    <edge id=":107813_7" function="internal">
        <lane id=":107813_7_0" index="0" speed="22.22" length="13.24" shape="899.55,407.18 902.22,404.98 904.31,402.65 906.10,400.05 907.88,397.04"/>
    </edge>
    <edge id=":107813_8" function="internal">
        <lane id=":107813_8_0" index="0" speed="17.81" length="2.73" shape="899.55,407.18 902.09,406.18"/>
    </edge>
    <edge id=":107813_12" function="internal">
        <lane id=":107813_12_0" index="0" speed="17.81" length="12.39" shape="902.09,406.18 902.40,406.06 905.31,406.72 908.27,409.19 911.29,413.45"/>
    </edge>
    <edge id=":107813_9" function="internal">
        <lane id=":107813_9_0" index="0" speed="22.22" length="2.70" shape="899.55,407.18 902.04,406.13"/>
    </edge>
    <edge id=":107813_13" function="internal">
        <lane id=":107813_13_0" index="0" speed="22.22" length="12.00" shape="902.04,406.13 903.18,407.50 902.98,411.30 901.45,417.52"/>
    </edge>
    <edge id=":107816_0" function="internal">
        <lane id=":107816_0_0" index="0" speed="17.81" length="5.13" shape="974.66,95.77 973.35,95.20 972.22,95.21 971.25,95.81 970.45,96.99"/>
    </edge>
    <edge id=":107816_1" function="internal">
        <lane id=":107816_1_0" index="0" speed="17.81" length="8.15" shape="974.66,95.77 972.11,94.45 970.07,93.98 968.52,94.34 967.48,95.54"/>
    </edge>
    <edge id=":107818_0" function="internal">
        <lane id=":107818_0_0" index="0" speed="13.41" length="16.48" shape="857.47,283.97 854.81,288.05 853.27,291.02 851.86,294.07 849.55,298.38"/>
    </edge>
    <edge id=":107818_1" function="internal">
        <lane id=":107818_1_0" index="0" speed="13.41" length="16.32" shape="854.58,282.44 852.31,286.72 850.74,289.64 849.11,292.53 846.69,296.73"/>
    </edge>
    <edge id=":107818_2" function="internal">
        <lane id=":107818_2_0" index="0" speed="13.41" length="15.03" shape="854.58,282.44 851.57,287.45 848.83,290.56 846.36,291.78 844.17,291.10"/>
    </edge>
    <edge id=":107818_3" function="internal">
        <lane id=":107818_3_0" index="0" speed="13.41" length="11.68" shape="854.58,282.44 852.28,286.17 850.12,288.43 848.10,289.21 846.21,288.51"/>
    </edge>
    <edge id=":107818_4" function="internal">
        <lane id=":107818_4_0" index="0" speed="13.41" length="16.41" shape="850.29,283.35 852.30,285.90 852.84,289.25 851.93,293.42 849.55,298.38"/>
    </edge>
    <edge id=":107818_5" function="internal">
        <lane id=":107818_5_0" index="0" speed="13.41" length="11.72" shape="848.25,285.93 849.36,287.55 849.47,289.90 848.58,292.96 846.69,296.73"/>
    </edge>
    <edge id=":107818_6" function="internal">
        <lane id=":107818_6_0" index="0" speed="13.41" length="4.81" shape="848.25,285.93 848.71,287.34 848.52,288.24 847.69,288.63 846.21,288.51"/>
    </edge>
    <edge id=":107820_0" function="internal">
        <lane id=":107820_0_0" index="0" speed="15.27" length="5.59" shape="799.71,392.29 799.08,393.80 799.18,394.95 800.02,395.75 801.60,396.18"/>
    </edge>
    <edge id=":107820_1" function="internal">
        <lane id=":107820_1_0" index="0" speed="8.33" length="2.41" shape="799.71,392.29 798.37,392.93 797.45,392.86"/>
    </edge>
    <edge id=":107820_4" function="internal">
        <lane id=":107820_4_0" index="0" speed="8.33" length="2.41" shape="797.45,392.86 796.95,392.09 796.88,390.60"/>
    </edge>
    <edge id=":107820_2" function="internal">
        <lane id=":107820_2_0" index="0" speed="11.11" length="15.56" shape="788.68,403.81 790.98,400.75 793.05,397.40 794.98,393.95 796.88,390.60"/>
    </edge>
    <edge id=":107820_3" function="internal">
        <lane id=":107820_3_0" index="0" speed="18.06" length="15.55" shape="788.68,403.81 792.21,400.19 795.53,397.72 798.66,396.38 801.60,396.18"/>
    </edge>
    <edge id=":107821_0" function="internal">
        <lane id=":107821_0_0" index="0" speed="8.33" length="9.56" shape="819.25,360.98 813.71,368.77"/>
    </edge>
    <edge id=":107821_1" function="internal">
        <lane id=":107821_1_0" index="0" speed="11.11" length="11.17" shape="819.25,360.98 816.65,362.64 814.36,363.27 811.87,363.38 808.66,363.49"/>
    </edge>
    <edge id=":107821_2" function="internal">
        <lane id=":107821_2_0" index="0" speed="8.33" length="2.41" shape="819.25,360.98 817.77,361.11 816.93,360.73"/>
    </edge>
    <edge id=":107821_9" function="internal">
        <lane id=":107821_9_0" index="0" speed="8.33" length="2.41" shape="816.93,360.73 816.73,359.83 817.18,358.41"/>
    </edge>
    <edge id=":107821_3" function="internal">
        <lane id=":107821_3_0" index="0" speed="11.11" length="8.95" shape="808.41,360.20 817.18,358.41"/>
    </edge>
    <edge id=":107821_4" function="internal">
        <lane id=":107821_4_0" index="0" speed="11.11" length="8.30" shape="808.41,360.20 812.83,360.43 815.18,361.94 815.30,363.02"/>
    </edge>
    <edge id=":107821_10" function="internal">
        <lane id=":107821_10_0" index="0" speed="11.11" length="6.13" shape="815.30,363.02 815.48,364.72 813.71,368.77"/>
    </edge>
    <edge id=":107821_5" function="internal">
        <lane id=":107821_5_0" index="0" speed="13.89" length="2.41" shape="808.41,360.20 809.71,360.93 810.18,361.73"/>
    </edge>
    <edge id=":107821_11" function="internal">
        <lane id=":107821_11_0" index="0" speed="13.89" length="2.41" shape="810.18,361.73 809.83,362.58 808.66,363.49"/>
    </edge>
    <edge id=":107821_6" function="internal">
        <lane id=":107821_6_0" index="0" speed="11.11" length="6.05" shape="810.88,367.08 811.62,365.39 811.49,364.22 810.51,363.59 808.66,363.49"/>
    </edge>
    <edge id=":107821_7" function="internal">
        <lane id=":107821_7_0" index="0" speed="8.33" length="10.83" shape="810.88,367.08 812.39,364.36 813.53,362.31 814.91,360.48 817.18,358.41"/>
    </edge>
    <edge id=":107821_8" function="internal">
        <lane id=":107821_8_0" index="0" speed="8.33" length="4.82" shape="810.88,367.08 812.22,366.44 813.14,366.51 813.64,367.29 813.71,368.77"/>
    </edge>
    <edge id=":108057_0" function="internal">
        <lane id=":108057_0_0" index="0" speed="10.87" length="5.08" shape="573.10,427.70 571.84,427.07 570.71,427.01 569.70,427.53 568.81,428.62"/>
    </edge>
    <edge id=":108057_1" function="internal">
        <lane id=":108057_1_0" index="0" speed="10.87" length="13.03" shape="573.10,427.70 569.76,424.93 567.80,422.24 567.24,419.61 568.06,417.06"/>
    </edge>
    <edge id=":108057_2" function="internal">
        <lane id=":108057_2_0" index="0" speed="8.33" length="4.82" shape="573.10,427.70 572.55,426.32 572.68,425.40 573.49,424.96 574.98,424.99"/>
    </edge>
    <edge id=":108057_3" function="internal">
        <lane id=":108057_3_0" index="0" speed="10.87" length="5.28" shape="573.71,420.46 573.21,421.71 573.26,422.88 573.85,423.97 574.98,424.99"/>
    </edge>
    <edge id=":108057_4" function="internal">
        <lane id=":108057_4_0" index="0" speed="13.41" length="9.51" shape="573.71,420.46 568.81,428.62"/>
    </edge>
    <edge id=":108057_5" function="internal">
        <lane id=":108057_5_0" index="0" speed="13.41" length="9.52" shape="570.88,418.76 565.98,426.92"/>
    </edge>
    <edge id=":108057_6" function="internal">
        <lane id=":108057_6_0" index="0" speed="13.41" length="2.41" shape="570.88,418.76 569.54,419.40 568.62,419.33"/>
    </edge>
    <edge id=":108057_11" function="internal">
        <lane id=":108057_11_0" index="0" speed="13.41" length="2.41" shape="568.62,419.33 568.13,418.55 568.06,417.06"/>
    </edge>
    <edge id=":108057_7" function="internal">
        <lane id=":108057_7_0" index="0" speed="13.41" length="9.52" shape="560.32,423.52 565.23,415.36"/>
    </edge>
    <edge id=":108057_8" function="internal">
        <lane id=":108057_8_0" index="0" speed="13.41" length="9.52" shape="563.15,425.22 568.06,417.06"/>
    </edge>
    <edge id=":108057_9" function="internal">
        <lane id=":108057_9_0" index="0" speed="10.87" length="6.69" shape="563.15,425.22 565.23,422.97 567.90,422.18 568.73,422.35"/>
    </edge>
    <edge id=":108057_12" function="internal">
        <lane id=":108057_12_0" index="0" speed="10.87" length="6.86" shape="568.73,422.35 571.15,422.85 574.98,424.99"/>
    </edge>
    <edge id=":108057_10" function="internal">
        <lane id=":108057_10_0" index="0" speed="13.41" length="2.41" shape="563.15,425.22 564.50,424.58 565.42,424.65"/>
    </edge>
    <edge id=":108057_13" function="internal">
        <lane id=":108057_13_0" index="0" speed="13.41" length="2.41" shape="565.42,424.65 565.91,425.43 565.98,426.92"/>
    </edge>
    <edge id=":108058_0" function="internal">
        <lane id=":108058_0_0" index="0" speed="13.65" length="9.20" shape="617.27,358.84 614.66,358.46 612.44,358.78 610.62,359.79 609.18,361.51"/>
    </edge>
    <edge id=":108058_1" function="internal">
        <lane id=":108058_1_0" index="0" speed="13.65" length="5.47" shape="617.27,358.84 612.16,356.88"/>
    </edge>
    <edge id=":108058_14" function="internal">
        <lane id=":108058_14_0" index="0" speed="13.65" length="11.46" shape="612.16,356.88 609.56,354.28 609.46,351.05 611.87,347.19"/>
    </edge>
    <edge id=":108058_2" function="internal">
        <lane id=":108058_2_0" index="0" speed="13.89" length="2.41" shape="617.27,358.84 616.28,357.73 616.09,356.83"/>
    </edge>
    <edge id=":108058_15" function="internal">
        <lane id=":108058_15_0" index="0" speed="13.89" length="2.41" shape="616.09,356.83 616.69,356.13 618.10,355.64"/>
    </edge>
    <edge id=":108058_3" function="internal">
        <lane id=":108058_3_0" index="0" speed="13.65" length="5.70" shape="616.83,351.54 615.90,352.95 615.80,354.10 616.53,355.00 618.10,355.64"/>
    </edge>
    <edge id=":108058_4" function="internal">
        <lane id=":108058_4_0" index="0" speed="13.41" length="12.60" shape="616.83,351.54 614.34,354.33 612.67,356.27 611.16,358.34 609.18,361.51"/>
    </edge>
    <edge id=":108058_5" function="internal">
        <lane id=":108058_5_0" index="0" speed="13.41" length="13.18" shape="614.35,349.36 611.75,352.29 610.00,354.33 608.43,356.49 606.36,359.80"/>
    </edge>
    <edge id=":108058_6" function="internal">
        <lane id=":108058_6_0" index="0" speed="13.41" length="2.41" shape="614.35,349.36 612.91,349.75 612.02,349.52"/>
    </edge>
    <edge id=":108058_16" function="internal">
        <lane id=":108058_16_0" index="0" speed="13.41" length="2.41" shape="612.02,349.52 611.67,348.66 611.87,347.19"/>
    </edge>
    <edge id=":108058_7" function="internal">
        <lane id=":108058_7_0" index="0" speed="17.81" length="13.05" shape="599.07,352.36 600.89,352.22 603.22,350.94 606.05,348.54 609.38,345.01"/>
    </edge>
    <edge id=":108058_8" function="internal">
        <lane id=":108058_8_0" index="0" speed="18.06" length="19.32" shape="599.07,352.36 603.40,353.24 608.58,354.02 613.76,354.78 618.10,355.64"/>
    </edge>
    <edge id=":108058_9" function="internal">
        <lane id=":108058_9_0" index="0" speed="17.81" length="3.62" shape="599.07,352.36 602.48,353.55"/>
    </edge>
    <edge id=":108058_17" function="internal">
        <lane id=":108058_17_0" index="0" speed="17.81" length="8.60" shape="602.48,353.55 603.33,353.84 605.96,355.57 606.97,357.56 606.36,359.80"/>
    </edge>
    <edge id=":108058_10" function="internal">
        <lane id=":108058_10_0" index="0" speed="13.41" length="14.36" shape="600.70,356.40 602.95,352.79 604.66,350.43 606.56,348.20 609.38,345.01"/>
    </edge>
    <edge id=":108058_11" function="internal">
        <lane id=":108058_11_0" index="0" speed="13.41" length="13.77" shape="603.53,358.10 605.69,354.64 607.33,352.38 609.15,350.25 611.87,347.19"/>
    </edge>
    <edge id=":108058_12" function="internal">
        <lane id=":108058_12_0" index="0" speed="13.65" length="7.26" shape="603.53,358.10 605.66,355.93 608.79,354.79 609.67,354.77"/>
    </edge>
    <edge id=":108058_18" function="internal">
        <lane id=":108058_18_0" index="0" speed="13.65" length="8.51" shape="609.67,354.77 612.94,354.70 618.10,355.64"/>
    </edge>
    <edge id=":108058_13" function="internal">
        <lane id=":108058_13_0" index="0" speed="13.41" length="2.41" shape="603.53,358.10 604.87,357.47 605.79,357.54"/>
    </edge>
    <edge id=":108058_19" function="internal">
        <lane id=":108058_19_0" index="0" speed="13.41" length="2.41" shape="605.79,357.54 606.29,358.32 606.36,359.80"/>
    </edge>
    <edge id=":108059_0" function="internal">
        <lane id=":108059_0_0" index="0" speed="18.06" length="6.77" shape="675.22,371.63 673.06,371.94 672.12,372.68 672.38,373.86 673.85,375.47"/>
    </edge>
    <edge id=":108059_1" function="internal">
        <lane id=":108059_1_0" index="0" speed="13.89" length="11.46" shape="675.22,371.63 671.33,371.94 668.24,372.56 665.96,373.51 664.49,374.77"/>
    </edge>
    <edge id=":108059_2" function="internal">
        <lane id=":108059_2_0" index="0" speed="13.89" length="12.26" shape="675.22,371.63 671.89,371.73 669.08,371.69 666.30,371.38 663.06,370.68"/>
    </edge>
    <edge id=":108059_3" function="internal">
        <lane id=":108059_3_0" index="0" speed="13.89" length="2.41" shape="675.22,371.63 673.96,370.85 673.52,370.04"/>
    </edge>
    <edge id=":108059_8" function="internal">
        <lane id=":108059_8_0" index="0" speed="13.89" length="2.41" shape="673.52,370.04 673.90,369.20 675.11,368.33"/>
    </edge>
    <edge id=":108059_4" function="internal">
        <lane id=":108059_4_0" index="0" speed="13.89" length="11.32" shape="663.89,367.49 666.98,368.17 669.44,368.44 671.93,368.45 675.11,368.33"/>
    </edge>
    <edge id=":108059_5" function="internal">
        <lane id=":108059_5_0" index="0" speed="18.06" length="12.95" shape="663.89,367.49 666.96,368.80 669.27,370.71 671.39,373.01 673.85,375.47"/>
    </edge>
    <edge id=":108059_6" function="internal">