<?xml version="1.0" encoding="UTF-8"?>

<!-- generated on 03/12/13 12:54:50 by SUMO netgenerate Version 0.16.0
<?xml version="1.0" encoding="UTF-8"?>

<configuration xmlns:xsi="http://www.w3.org/2001/XMLSchema-instance" xsi:noNamespaceSchemaLocation="http://sumo.sf.net/xsd/netgenerateConfiguration.xsd">

    <grid_network>
        <grid value="true"/>
        <grid.number value="3"/>
        <grid.length value="33"/>
    </grid_network>

    <output>
        <output-file value="G:\Kings\OST\output\asd.net.xml"/>
    </output>

    <building_defaults>
        <default.lanenumber value="2"/>
        <default.speed value="12"/>
    </building_defaults>

</configuration>
-->

<net version="0.13" xmlns:xsi="http://www.w3.org/2001/XMLSchema-instance" xsi:noNamespaceSchemaLocation="http://sumo.sf.net/xsd/net_file.xsd">

    <location netOffset="0.00,0.00" convBoundary="0.00,0.00,66.00,66.00" origBoundary="0.00,0.00,66.00,66.00" projParameter="!"/>

    <edge id=":0/0_0" function="internal">
        <lane id=":0/0_0_0" index="0" speed="12.00" length="18.55" shape="-4.95,6.55 -4.23,1.52 -2.08,-2.08 1.52,-4.23 6.55,-4.95"/>
    </edge>
    <edge id=":0/0_1" function="internal">
        <lane id=":0/0_1_0" index="0" speed="12.00" length="13.22" shape="-1.65,6.55 -1.14,2.96 0.40,0.40 2.96,-1.14 6.55,-1.65"/>
    </edge>
    <edge id=":0/0_2" function="internal">
        <lane id=":0/0_2_0" index="0" speed="12.00" length="2.41" shape="-1.65,6.55 -0.83,5.31 -0.00,4.90"/>
    </edge>
    <edge id=":0/0_6" function="internal">
        <lane id=":0/0_6_0" index="0" speed="12.00" length="2.41" shape="-0.00,4.90 0.82,5.31 1.65,6.55"/>
    </edge>
    <edge id=":0/0_3" function="internal">
        <lane id=":0/0_3_0" index="0" speed="12.00" length="2.58" shape="6.55,4.95 5.85,5.05 5.35,5.35 5.05,5.85 4.95,6.55"/>
    </edge>
    <edge id=":0/0_4" function="internal">
        <lane id=":0/0_4_0" index="0" speed="12.00" length="7.90" shape="6.55,1.65 4.41,1.96 2.87,2.87 1.96,4.41 1.65,6.55"/>
    </edge>
    <edge id=":0/0_5" function="internal">
        <lane id=":0/0_5_0" index="0" speed="12.00" length="2.41" shape="6.55,1.65 5.31,0.83 4.90,0.00"/>
    </edge>
    <edge id=":0/0_7" function="internal">
        <lane id=":0/0_7_0" index="0" speed="12.00" length="2.41" shape="4.90,0.00 5.31,-0.82 6.55,-1.65"/>
    </edge>
    <edge id=":0/1_0" function="internal">
        <lane id=":0/1_0_0" index="0" speed="12.00" length="16.10" shape="-4.95,41.05 -4.95,36.27 -4.95,33.00 -4.95,29.73 -4.95,24.95"/>
    </edge>
    <edge id=":0/1_1" function="internal">
        <lane id=":0/1_1_0" index="0" speed="12.00" length="16.10" shape="-1.65,41.05 -1.65,36.27 -1.65,33.00 -1.65,29.73 -1.65,24.95"/>
    </edge>
    <edge id=":0/1_2" function="internal">
        <lane id=":0/1_2_0" index="0" speed="12.00" length="8.84" shape="-1.65,41.05 -1.04,36.81 0.77,33.78 1.65,33.25"/>
    </edge>
    <edge id=":0/1_11" function="internal">
        <lane id=":0/1_11_0" index="0" speed="12.00" length="6.80" shape="1.65,33.25 3.81,31.96 8.05,31.35"/>
    </edge>
    <edge id=":0/1_3" function="internal">
        <lane id=":0/1_3_0" index="0" speed="12.00" length="2.41" shape="-1.65,41.05 -0.83,39.81 -0.00,39.40"/>
    </edge>
    <edge id=":0/1_12" function="internal">
        <lane id=":0/1_12_0" index="0" speed="12.00" length="2.41" shape="-0.00,39.40 0.82,39.81 1.65,41.05"/>
    </edge>
    <edge id=":0/1_4" function="internal">
        <lane id=":0/1_4_0" index="0" speed="12.00" length="5.00" shape="8.05,37.95 6.69,38.14 5.72,38.73 5.14,39.69 4.95,41.05"/>
    </edge>
    <edge id=":0/1_5" function="internal">
        <lane id=":0/1_5_0" index="0" speed="12.00" length="15.64" shape="8.05,34.65 3.81,34.04 0.77,32.23 -1.04,29.19 -1.65,24.95"/>
    </edge>
    <edge id=":0/1_6" function="internal">
        <lane id=":0/1_6_0" index="0" speed="12.00" length="4.82" shape="8.05,34.65 6.81,33.82 6.40,33.00 6.81,32.18 8.05,31.35"/>
    </edge>
    <edge id=":0/1_7" function="internal">
        <lane id=":0/1_7_0" index="0" speed="12.00" length="5.00" shape="4.95,24.95 5.14,26.31 5.72,27.28 6.69,27.86 8.05,28.05"/>
    </edge>
    <edge id=":0/1_8" function="internal">
        <lane id=":0/1_8_0" index="0" speed="12.00" length="16.10" shape="4.95,24.95 4.95,29.73 4.95,33.00 4.95,36.27 4.95,41.05"/>
    </edge>
    <edge id=":0/1_9" function="internal">
        <lane id=":0/1_9_0" index="0" speed="12.00" length="16.10" shape="1.65,24.95 1.65,29.73 1.65,33.00 1.65,36.27 1.65,41.05"/>
    </edge>
    <edge id=":0/1_10" function="internal">
        <lane id=":0/1_10_0" index="0" speed="12.00" length="2.41" shape="1.65,24.95 0.83,26.19 0.00,26.60"/>
    </edge>
    <edge id=":0/1_13" function="internal">
        <lane id=":0/1_13_0" index="0" speed="12.00" length="2.41" shape="0.00,26.60 -0.82,26.19 -1.65,24.95"/>
    </edge>
    <edge id=":0/2_0" function="internal">
        <lane id=":0/2_0_0" index="0" speed="12.00" length="18.55" shape="6.55,70.95 1.52,70.23 -2.08,68.08 -4.23,64.48 -4.95,59.45"/>
    </edge>
    <edge id=":0/2_1" function="internal">
        <lane id=":0/2_1_0" index="0" speed="12.00" length="13.22" shape="6.55,67.65 2.96,67.14 0.40,65.60 -1.14,63.04 -1.65,59.45"/>
    </edge>
    <edge id=":0/2_2" function="internal">
        <lane id=":0/2_2_0" index="0" speed="12.00" length="2.41" shape="6.55,67.65 5.31,66.83 4.90,66.00"/>
    </edge>
    <edge id=":0/2_6" function="internal">
        <lane id=":0/2_6_0" index="0" speed="12.00" length="2.41" shape="4.90,66.00 5.31,65.17 6.55,64.35"/>
    </edge>
    <edge id=":0/2_3" function="internal">
        <lane id=":0/2_3_0" index="0" speed="12.00" length="2.58" shape="4.95,59.45 5.05,60.15 5.35,60.65 5.85,60.95 6.55,61.05"/>
    </edge>
    <edge id=":0/2_4" function="internal">
        <lane id=":0/2_4_0" index="0" speed="12.00" length="7.90" shape="1.65,59.45 1.96,61.59 2.87,63.12 4.41,64.04 6.55,64.35"/>
    </edge>
    <edge id=":0/2_5" function="internal">
        <lane id=":0/2_5_0" index="0" speed="12.00" length="2.41" shape="1.65,59.45 0.83,60.69 0.00,61.10"/>
    </edge>
    <edge id=":0/2_7" function="internal">
        <lane id=":0/2_7_0" index="0" speed="12.00" length="2.41" shape="0.00,61.10 -0.82,60.69 -1.65,59.45"/>
    </edge>
    <edge id=":1/0_0" function="internal">
        <lane id=":1/0_0_0" index="0" speed="12.00" length="5.00" shape="28.05,8.05 27.86,6.69 27.28,5.72 26.31,5.14 24.95,4.95"/>
    </edge>
    <edge id=":1/0_1" function="internal">
        <lane id=":1/0_1_0" index="0" speed="12.00" length="15.64" shape="31.35,8.05 31.96,3.81 33.78,0.77 36.81,-1.04 41.05,-1.65"/>
    </edge>
    <edge id=":1/0_2" function="internal">
        <lane id=":1/0_2_0" index="0" speed="12.00" length="4.82" shape="31.35,8.05 32.18,6.81 33.00,6.40 33.82,6.81 34.65,8.05"/>
    </edge>
    <edge id=":1/0_3" function="internal">
        <lane id=":1/0_3_0" index="0" speed="12.00" length="5.00" shape="41.05,4.95 39.69,5.14 38.73,5.72 38.14,6.69 37.95,8.05"/>
    </edge>
    <edge id=":1/0_4" function="internal">
        <lane id=":1/0_4_0" index="0" speed="12.00" length="16.10" shape="41.05,4.95 36.27,4.95 33.00,4.95 29.73,4.95 24.95,4.95"/>
    </edge>
    <edge id=":1/0_5" function="internal">
        <lane id=":1/0_5_0" index="0" speed="12.00" length="16.10" shape="41.05,1.65 36.27,1.65 33.00,1.65 29.73,1.65 24.95,1.65"/>
    </edge>
    <edge id=":1/0_6" function="internal">
        <lane id=":1/0_6_0" index="0" speed="12.00" length="2.41" shape="41.05,1.65 39.81,0.83 39.40,0.00"/>
    </edge>
    <edge id=":1/0_11" function="internal">
        <lane id=":1/0_11_0" index="0" speed="12.00" length="2.41" shape="39.40,0.00 39.81,-0.82 41.05,-1.65"/>
    </edge>
    <edge id=":1/0_7" function="internal">
        <lane id=":1/0_7_0" index="0" speed="12.00" length="16.10" shape="24.95,-4.95 29.73,-4.95 33.00,-4.95 36.27,-4.95 41.05,-4.95"/>
    </edge>
    <edge id=":1/0_8" function="internal">
        <lane id=":1/0_8_0" index="0" speed="12.00" length="16.10" shape="24.95,-1.65 29.73,-1.65 33.00,-1.65 36.27,-1.65 41.05,-1.65"/>
    </edge>
    <edge id=":1/0_9" function="internal">
        <lane id=":1/0_9_0" index="0" speed="12.00" length="8.84" shape="24.95,-1.65 29.19,-1.04 32.23,0.77 32.75,1.65"/>
    </edge>
    <edge id=":1/0_12" function="internal">
        <lane id=":1/0_12_0" index="0" speed="12.00" length="6.80" shape="32.75,1.65 34.04,3.81 34.65,8.05"/>
    </edge>
    <edge id=":1/0_10" function="internal">
        <lane id=":1/0_10_0" index="0" speed="12.00" length="2.41" shape="24.95,-1.65 26.19,-0.83 26.60,-0.00"/>
    </edge>
    <edge id=":1/0_13" function="internal">
        <lane id=":1/0_13_0" index="0" speed="12.00" length="2.41" shape="26.60,-0.00 26.19,0.82 24.95,1.65"/>
    </edge>
    <edge id=":1/1_0" function="internal">
        <lane id=":1/1_0_0" index="0" speed="12.00" length="5.00" shape="28.05,41.05 27.86,39.69 27.28,38.73 26.31,38.14 24.95,37.95"/>
    </edge>
    <edge id=":1/1_1" function="internal">
        <lane id=":1/1_1_0" index="0" speed="12.00" length="16.10" shape="28.05,41.05 28.05,36.27 28.05,33.00 28.05,29.73 28.05,24.95"/>
    </edge>
    <edge id=":1/1_2" function="internal">
        <lane id=":1/1_2_0" index="0" speed="12.00" length="16.10" shape="31.35,41.05 31.35,36.27 31.35,33.00 31.35,29.73 31.35,24.95"/>
    </edge>
    <edge id=":1/1_3" function="internal">
        <lane id=":1/1_3_0" index="0" speed="12.00" length="8.84" shape="31.35,41.05 31.96,36.81 33.78,33.78 34.65,33.25"/>
    </edge>
    <edge id=":1/1_18" function="internal">
        <lane id=":1/1_18_0" index="0" speed="12.00" length="6.80" shape="34.65,33.25 36.81,31.96 41.05,31.35"/>
    </edge>
    <edge id=":1/1_4" function="internal">
        <lane id=":1/1_4_0" index="0" speed="12.00" length="2.41" shape="31.35,41.05 32.18,39.81 33.00,39.40"/>
    </edge>
    <edge id=":1/1_19" function="internal">
        <lane id=":1/1_19_0" index="0" speed="12.00" length="2.41" shape="33.00,39.40 33.82,39.81 34.65,41.05"/>
    </edge>
    <edge id=":1/1_5" function="internal">
        <lane id=":1/1_5_0" index="0" speed="12.00" length="5.00" shape="41.05,37.95 39.69,38.14 38.73,38.73 38.14,39.69 37.95,41.05"/>
    </edge>
    <edge id=":1/1_6" function="internal">
        <lane id=":1/1_6_0" index="0" speed="12.00" length="16.10" shape="41.05,34.65 36.27,34.65 33.00,34.65 29.73,34.65 24.95,34.65"/>
    </edge>
    <edge id=":1/1_7" function="internal">
        <lane id=":1/1_7_0" index="0" speed="12.00" length="15.64" shape="41.05,34.65 36.81,34.04 33.77,32.23 31.96,29.19 31.35,24.95"/>
    </edge>
    <edge id=":1/1_8" function="internal">
        <lane id=":1/1_8_0" index="0" speed="12.00" length="4.82" shape="41.05,34.65 39.81,33.82 39.40,33.00 39.81,32.18 41.05,31.35"/>
    </edge>
    <edge id=":1/1_9" function="internal">
        <lane id=":1/1_9_0" index="0" speed="12.00" length="5.00" shape="37.95,24.95 38.14,26.31 38.73,27.28 39.69,27.86 41.05,28.05"/>
    </edge>
    <edge id=":1/1_10" function="internal">
        <lane id=":1/1_10_0" index="0" speed="12.00" length="16.10" shape="37.95,24.95 37.95,29.73 37.95,33.00 37.95,36.27 37.95,41.05"/>
    </edge>
    <edge id=":1/1_11" function="internal">
        <lane id=":1/1_11_0" index="0" speed="12.00" length="16.10" shape="34.65,24.95 34.65,29.73 34.65,33.00 34.65,36.27 34.65,41.05"/>
    </edge>
    <edge id=":1/1_12" function="internal">
        <lane id=":1/1_12_0" index="0" speed="12.00" length="8.84" shape="34.65,24.95 34.04,29.19 32.23,32.23 31.35,32.75"/>
    </edge>
    <edge id=":1/1_20" function="internal">
        <lane id=":1/1_20_0" index="0" speed="12.00" length="6.80" shape="31.35,32.75 29.19,34.04 24.95,34.65"/>
    </edge>
    <edge id=":1/1_13" function="internal">
        <lane id=":1/1_13_0" index="0" speed="12.00" length="2.41" shape="34.65,24.95 33.82,26.19 33.00,26.60"/>
    </edge>
    <edge id=":1/1_21" function="internal">
        <lane id=":1/1_21_0" index="0" speed="12.00" length="2.41" shape="33.00,26.60 32.18,26.19 31.35,24.95"/>
    </edge>
    <edge id=":1/1_14" function="internal">
        <lane id=":1/1_14_0" index="0" speed="12.00" length="5.00" shape="24.95,28.05 26.31,27.86 27.28,27.28 27.86,26.31 28.05,24.95"/>
    </edge>
    <edge id=":1/1_15" function="internal">
        <lane id=":1/1_15_0" index="0" speed="12.00" length="16.10" shape="24.95,31.35 29.73,31.35 33.00,31.35 36.27,31.35 41.05,31.35"/>
    </edge>
    <edge id=":1/1_16" function="internal">
        <lane id=":1/1_16_0" index="0" speed="12.00" length="15.64" shape="24.95,31.35 29.19,31.96 32.23,33.78 34.04,36.81 34.65,41.05"/>
    </edge>
    <edge id=":1/1_17" function="internal">
        <lane id=":1/1_17_0" index="0" speed="12.00" length="4.82" shape="24.95,31.35 26.19,32.18 26.60,33.00 26.19,33.82 24.95,34.65"/>
    </edge>
    <edge id=":1/2_0" function="internal">
        <lane id=":1/2_0_0" index="0" speed="12.00" length="16.10" shape="41.05,70.95 36.27,70.95 33.00,70.95 29.73,70.95 24.95,70.95"/>
    </edge>
    <edge id=":1/2_1" function="internal">
        <lane id=":1/2_1_0" index="0" speed="12.00" length="16.10" shape="41.05,67.65 36.27,67.65 33.00,67.65 29.73,67.65 24.95,67.65"/>
    </edge>
    <edge id=":1/2_2" function="internal">
        <lane id=":1/2_2_0" index="0" speed="12.00" length="8.84" shape="41.05,67.65 36.81,67.04 33.78,65.22 33.25,64.35"/>
    </edge>
    <edge id=":1/2_11" function="internal">
        <lane id=":1/2_11_0" index="0" speed="12.00" length="6.80" shape="33.25,64.35 31.96,62.19 31.35,57.95"/>
    </edge>
    <edge id=":1/2_3" function="internal">
        <lane id=":1/2_3_0" index="0" speed="12.00" length="2.41" shape="41.05,67.65 39.81,66.83 39.40,66.00"/>
    </edge>
    <edge id=":1/2_12" function="internal">
        <lane id=":1/2_12_0" index="0" speed="12.00" length="2.41" shape="39.40,66.00 39.81,65.17 41.05,64.35"/>
    </edge>
    <edge id=":1/2_4" function="internal">
        <lane id=":1/2_4_0" index="0" speed="12.00" length="5.00" shape="37.95,57.95 38.14,59.31 38.73,60.27 39.69,60.86 41.05,61.05"/>
    </edge>
    <edge id=":1/2_5" function="internal">
        <lane id=":1/2_5_0" index="0" speed="12.00" length="15.64" shape="34.65,57.95 34.04,62.19 32.23,65.22 29.19,67.04 24.95,67.65"/>
    </edge>
    <edge id=":1/2_6" function="internal">
        <lane id=":1/2_6_0" index="0" speed="12.00" length="4.82" shape="34.65,57.95 33.82,59.19 33.00,59.60 32.18,59.19 31.35,57.95"/>
    </edge>
    <edge id=":1/2_7" function="internal">
        <lane id=":1/2_7_0" index="0" speed="12.00" length="5.00" shape="24.95,61.05 26.31,60.86 27.28,60.27 27.86,59.31 28.05,57.95"/>
    </edge>
    <edge id=":1/2_8" function="internal">
        <lane id=":1/2_8_0" index="0" speed="12.00" length="16.10" shape="24.95,61.05 29.73,61.05 33.00,61.05 36.27,61.05 41.05,61.05"/>
    </edge>
    <edge id=":1/2_9" function="internal">
        <lane id=":1/2_9_0" index="0" speed="12.00" length="16.10" shape="24.95,64.35 29.73,64.35 33.00,64.35 36.27,64.35 41.05,64.35"/>
    </edge>
    <edge id=":1/2_10" function="internal">
        <lane id=":1/2_10_0" index="0" speed="12.00" length="2.41" shape="24.95,64.35 26.19,65.17 26.60,66.00"/>
    </edge>
    <edge id=":1/2_13" function="internal">
        <lane id=":1/2_13_0" index="0" speed="12.00" length="2.41" shape="26.60,66.00 26.19,66.83 24.95,67.65"/>
    </edge>
    <edge id=":2/0_0" function="internal">
        <lane id=":2/0_0_0" index="0" speed="12.00" length="2.58" shape="61.05,6.55 60.95,5.85 60.65,5.35 60.15,5.05 59.45,4.95"/>
    </edge>
    <edge id=":2/0_1" function="internal">
        <lane id=":2/0_1_0" index="0" speed="12.00" length="7.90" shape="64.35,6.55 64.04,4.41 63.12,2.87 61.59,1.96 59.45,1.65"/>
    </edge>
    <edge id=":2/0_2" function="internal">
        <lane id=":2/0_2_0" index="0" speed="12.00" length="2.41" shape="64.35,6.55 65.17,5.31 66.00,4.90"/>
    </edge>
    <edge id=":2/0_6" function="internal">
        <lane id=":2/0_6_0" index="0" speed="12.00" length="2.41" shape="66.00,4.90 66.83,5.31 67.65,6.55"/>
    </edge>
    <edge id=":2/0_3" function="internal">
        <lane id=":2/0_3_0" index="0" speed="12.00" length="18.55" shape="59.45,-4.95 64.48,-4.23 68.08,-2.08 70.23,1.52 70.95,6.55"/>
    </edge>
    <edge id=":2/0_4" function="internal">
        <lane id=":2/0_4_0" index="0" speed="12.00" length="13.22" shape="59.45,-1.65 63.04,-1.14 65.60,0.40 67.14,2.96 67.65,6.55"/>
    </edge>
    <edge id=":2/0_5" function="internal">
        <lane id=":2/0_5_0" index="0" speed="12.00" length="2.41" shape="59.45,-1.65 60.69,-0.83 61.10,-0.00"/>
    </edge>
    <edge id=":2/0_7" function="internal">
        <lane id=":2/0_7_0" index="0" speed="12.00" length="2.41" shape="61.10,-0.00 60.69,0.82 59.45,1.65"/>
    </edge>
    <edge id=":2/1_0" function="internal">
        <lane id=":2/1_0_0" index="0" speed="12.00" length="5.00" shape="61.05,41.05 60.86,39.69 60.27,38.73 59.31,38.14 57.95,37.95"/>
    </edge>
    <edge id=":2/1_1" function="internal">
        <lane id=":2/1_1_0" index="0" speed="12.00" length="16.10" shape="61.05,41.05 61.05,36.27 61.05,33.00 61.05,29.73 61.05,24.95"/>
    </edge>
    <edge id=":2/1_2" function="internal">
        <lane id=":2/1_2_0" index="0" speed="12.00" length="16.10" shape="64.35,41.05 64.35,36.27 64.35,33.00 64.35,29.73 64.35,24.95"/>
    </edge>
    <edge id=":2/1_3" function="internal">
        <lane id=":2/1_3_0" index="0" speed="12.00" length="2.41" shape="64.35,41.05 65.17,39.81 66.00,39.40"/>
    </edge>
    <edge id=":2/1_11" function="internal">
        <lane id=":2/1_11_0" index="0" speed="12.00" length="2.41" shape="66.00,39.40 66.83,39.81 67.65,41.05"/>
    </edge>
    <edge id=":2/1_4" function="internal">
        <lane id=":2/1_4_0" index="0" speed="12.00" length="16.10" shape="70.95,24.95 70.95,29.73 70.95,33.00 70.95,36.27 70.95,41.05"/>
    </edge>
    <edge id=":2/1_5" function="internal">
        <lane id=":2/1_5_0" index="0" speed="12.00" length="16.10" shape="67.65,24.95 67.65,29.73 67.65,33.00 67.65,36.27 67.65,41.05"/>
    </edge>
    <edge id=":2/1_6" function="internal">
        <lane id=":2/1_6_0" index="0" speed="12.00" length="8.84" shape="67.65,24.95 67.04,29.19 65.22,32.23 64.35,32.75"/>
    </edge>
    <edge id=":2/1_12" function="internal">
        <lane id=":2/1_12_0" index="0" speed="12.00" length="6.80" shape="64.35,32.75 62.19,34.04 57.95,34.65"/>
    </edge>
    <edge id=":2/1_7" function="internal">
        <lane id=":2/1_7_0" index="0" speed="12.00" length="2.41" shape="67.65,24.95 66.83,26.19 66.00,26.60"/>
    </edge>
    <edge id=":2/1_13" function="internal">
        <lane id=":2/1_13_0" index="0" speed="12.00" length="2.41" shape="66.00,26.60 65.17,26.19 64.35,24.95"/>
    </edge>
    <edge id=":2/1_8" function="internal">
        <lane id=":2/1_8_0" index="0" speed="12.00" length="5.00" shape="57.95,28.05 59.31,27.86 60.27,27.28 60.86,26.31 61.05,24.95"/>
    </edge>
    <edge id=":2/1_9" function="internal">
        <lane id=":2/1_9_0" index="0" speed="12.00" length="15.64" shape="57.95,31.35 62.19,31.96 65.22,33.78 67.04,36.81 67.65,41.05"/>
    </edge>
    <edge id=":2/1_10" function="internal">
        <lane id=":2/1_10_0" index="0" speed="12.00" length="4.82" shape="57.95,31.35 59.19,32.18 59.60,33.00 59.19,33.82 57.95,34.65"/>
    </edge>
    <edge id=":2/2_0" function="internal">
        <lane id=":2/2_0_0" index="0" speed="12.00" length="18.55" shape="70.95,59.45 70.23,64.48 68.08,68.08 64.48,70.23 59.45,70.95"/>
    </edge>
    <edge id=":2/2_1" function="internal">
        <lane id=":2/2_1_0" index="0" speed="12.00" length="13.22" shape="67.65,59.45 67.14,63.04 65.60,65.60 63.04,67.14 59.45,67.65"/>
    </edge>
    <edge id=":2/2_2" function="internal">
        <lane id=":2/2_2_0" index="0" speed="12.00" length="2.41" shape="67.65,59.45 66.83,60.69 66.00,61.10"/>
    </edge>
    <edge id=":2/2_6" function="internal">
        <lane id=":2/2_6_0" index="0" speed="12.00" length="2.41" shape="66.00,61.10 65.17,60.69 64.35,59.45"/>
    </edge>
    <edge id=":2/2_3" function="internal">
        <lane id=":2/2_3_0" index="0" speed="12.00" length="2.58" shape="59.45,61.05 60.15,60.95 60.65,60.65 60.95,60.15 61.05,59.45"/>
    </edge>
    <edge id=":2/2_4" function="internal">
        <lane id=":2/2_4_0" index="0" speed="12.00" length="7.90" shape="59.45,64.35 61.59,64.04 63.12,63.12 64.04,61.59 64.35,59.45"/>
    </edge>
    <edge id=":2/2_5" function="internal">
        <lane id=":2/2_5_0" index="0" speed="12.00" length="2.41" shape="59.45,64.35 60.69,65.17 61.10,66.00"/>
    </edge>
    <edge id=":2/2_7" function="internal">
        <lane id=":2/2_7_0" index="0" speed="12.00" length="2.41" shape="61.10,66.00 60.69,66.83 59.45,67.65"/>
    </edge>

    <edge id="0/0to0/1" from="0/0" to="0/1" priority="-1">
        <lane id="0/0to0/1_0" index="0" speed="12.00" length="18.40" shape="4.95,6.55 4.95,24.95"/>
        <lane id="0/0to0/1_1" index="1" speed="12.00" length="18.40" shape="1.65,6.55 1.65,24.95"/>
    </edge>
    <edge id="0/0to1/0" from="0/0" to="1/0" priority="-1">
        <lane id="0/0to1/0_0" index="0" speed="12.00" length="18.40" shape="6.55,-4.95 24.95,-4.95"/>
        <lane id="0/0to1/0_1" index="1" speed="12.00" length="18.40" shape="6.55,-1.65 24.95,-1.65"/>
    </edge>
    <edge id="0/1to0/0" from="0/1" to="0/0" priority="-1">
        <lane id="0/1to0/0_0" index="0" speed="12.00" length="18.40" shape="-4.95,24.95 -4.95,6.55"/>
        <lane id="0/1to0/0_1" index="1" speed="12.00" length="18.40" shape="-1.65,24.95 -1.65,6.55"/>
    </edge>
    <edge id="0/1to0/2" from="0/1" to="0/2" priority="-1">
        <lane id="0/1to0/2_0" index="0" speed="12.00" length="18.40" shape="4.95,41.05 4.95,59.45"/>
        <lane id="0/1to0/2_1" index="1" speed="12.00" length="18.40" shape="1.65,41.05 1.65,59.45"/>
    </edge>
    <edge id="0/1to1/1" from="0/1" to="1/1" priority="-1">
        <lane id="0/1to1/1_0" index="0" speed="12.00" length="16.90" shape="8.05,28.05 24.95,28.05"/>
        <lane id="0/1to1/1_1" index="1" speed="12.00" length="16.90" shape="8.05,31.35 24.95,31.35"/>
    </edge>
    <edge id="0/2to0/1" from="0/2" to="0/1" priority="-1">
        <lane id="0/2to0/1_0" index="0" speed="12.00" length="18.40" shape="-4.95,59.45 -4.95,41.05"/>
        <lane id="0/2to0/1_1" index="1" speed="12.00" length="18.40" shape="-1.65,59.45 -1.65,41.05"/>
    </edge>
    <edge id="0/2to1/2" from="0/2" to="1/2" priority="-1">
        <lane id="0/2to1/2_0" index="0" speed="12.00" length="18.40" shape="6.55,61.05 24.95,61.05"/>
        <lane id="0/2to1/2_1" index="1" speed="12.00" length="18.40" shape="6.55,64.35 24.95,64.35"/>
    </edge>
    <edge id="1/0to0/0" from="1/0" to="0/0" priority="-1">
        <lane id="1/0to0/0_0" index="0" speed="12.00" length="18.40" shape="24.95,4.95 6.55,4.95"/>
        <lane id="1/0to0/0_1" index="1" speed="12.00" length="18.40" shape="24.95,1.65 6.55,1.65"/>
    </edge>
    <edge id="1/0to1/1" from="1/0" to="1/1" priority="-1">
        <lane id="1/0to1/1_0" index="0" speed="12.00" length="16.90" shape="37.95,8.05 37.95,24.95"/>
        <lane id="1/0to1/1_1" index="1" speed="12.00" length="16.90" shape="34.65,8.05 34.65,24.95"/>
    </edge>
    <edge id="1/0to2/0" from="1/0" to="2/0" priority="-1">
        <lane id="1/0to2/0_0" index="0" speed="12.00" length="18.40" shape="41.05,-4.95 59.45,-4.95"/>
        <lane id="1/0to2/0_1" index="1" speed="12.00" length="18.40" shape="41.05,-1.65 59.45,-1.65"/>
    </edge>
    <edge id="1/1to0/1" from="1/1" to="0/1" priority="-1">
        <lane id="1/1to0/1_0" index="0" speed="12.00" length="16.90" shape="24.95,37.95 8.05,37.95"/>
        <lane id="1/1to0/1_1" index="1" speed="12.00" length="16.90" shape="24.95,34.65 8.05,34.65"/>
    </edge>
    <edge id="1/1to1/0" from="1/1" to="1/0" priority="-1">
        <lane id="1/1to1/0_0" index="0" speed="12.00" length="16.90" shape="28.05,24.95 28.05,8.05"/>
        <lane id="1/1to1/0_1" index="1" speed="12.00" length="16.90" shape="31.35,24.95 31.35,8.05"/>
    </edge>
    <edge id="1/1to1/2" from="1/1" to="1/2" priority="-1">
        <lane id="1/1to1/2_0" index="0" speed="12.00" length="16.90" shape="37.95,41.05 37.95,57.95"/>
        <lane id="1/1to1/2_1" index="1" speed="12.00" length="16.90" shape="34.65,41.05 34.65,57.95"/>
    </edge>
    <edge id="1/1to2/1" from="1/1" to="2/1" priority="-1">
        <lane id="1/1to2/1_0" index="0" speed="12.00" length="16.90" shape="41.05,28.05 57.95,28.05"/>
        <lane id="1/1to2/1_1" index="1" speed="12.00" length="16.90" shape="41.05,31.35 57.95,31.35"/>
    </edge>
    <edge id="1/2to0/2" from="1/2" to="0/2" priority="-1">
        <lane id="1/2to0/2_0" index="0" speed="12.00" length="18.40" shape="24.95,70.95 6.55,70.95"/>
        <lane id="1/2to0/2_1" index="1" speed="12.00" length="18.40" shape="24.95,67.65 6.55,67.65"/>
    </edge>
    <edge id="1/2to1/1" from="1/2" to="1/1" priority="-1">
        <lane id="1/2to1/1_0" index="0" speed="12.00" length="16.90" shape="28.05,57.95 28.05,41.05"/>
        <lane id="1/2to1/1_1" index="1" speed="12.00" length="16.90" shape="31.35,57.95 31.35,41.05"/>
    </edge>
    <edge id="1/2to2/2" from="1/2" to="2/2" priority="-1">
        <lane id="1/2to2/2_0" index="0" speed="12.00" length="18.40" shape="41.05,61.05 59.45,61.05"/>
        <lane id="1/2to2/2_1" index="1" speed="12.00" length="18.40" shape="41.05,64.35 59.45,64.35"/>
    </edge>
    <edge id="2/0to1/0" from="2/0" to="1/0" priority="-1">
        <lane id="2/0to1/0_0" index="0" speed="12.00" length="18.40" shape="59.45,4.95 41.05,4.95"/>
        <lane id="2/0to1/0_1" index="1" speed="12.00" length="18.40" shape="59.45,1.65 41.05,1.65"/>
    </edge>
    <edge id="2/0to2/1" from="2/0" to="2/1" priority="-1">
        <lane id="2/0to2/1_0" index="0" speed="12.00" length="18.40" shape="70.95,6.55 70.95,24.95"/>
        <lane id="2/0to2/1_1" index="1" speed="12.00" length="18.40" shape="67.65,6.55 67.65,24.95"/>
    </edge>
    <edge id="2/1to1/1" from="2/1" to="1/1" priority="-1">
        <lane id="2/1to1/1_0" index="0" speed="12.00" length="16.90" shape="57.95,37.95 41.05,37.95"/>
        <lane id="2/1to1/1_1" index="1" speed="12.00" length="16.90" shape="57.95,34.65 41.05,34.65"/>
    </edge>
    <edge id="2/1to2/0" from="2/1" to="2/0" priority="-1">
        <lane id="2/1to2/0_0" index="0" speed="12.00" length="18.40" shape="61.05,24.95 61.05,6.55"/>
        <lane id="2/1to2/0_1" index="1" speed="12.00" length="18.40" shape="64.35,24.95 64.35,6.55"/>
    </edge>
    <edge id="2/1to2/2" from="2/1" to="2/2" priority="-1">
        <lane id="2/1to2/2_0" index="0" speed="12.00" length="18.40" shape="70.95,41.05 70.95,59.45"/>
        <lane id="2/1to2/2_1" index="1" speed="12.00" length="18.40" shape="67.65,41.05 67.65,59.45"/>
    </edge>
    <edge id="2/2to1/2" from="2/2" to="1/2" priority="-1">
        <lane id="2/2to1/2_0" index="0" speed="12.00" length="18.40" shape="59.45,70.95 41.05,70.95"/>
        <lane id="2/2to1/2_1" index="1" speed="12.00" length="18.40" shape="59.45,67.65 41.05,67.65"/>
    </edge>
    <edge id="2/2to2/1" from="2/2" to="2/1" priority="-1">
        <lane id="2/2to2/1_0" index="0" speed="12.00" length="18.40" shape="61.05,59.45 61.05,41.05"/>
        <lane id="2/2to2/1_1" index="1" speed="12.00" length="18.40" shape="64.35,59.45 64.35,41.05"/>
    </edge>

    <junction id="0/0" type="priority" x="0.00" y="0.00" incLanes="0/1to0/0_0 0/1to0/0_1 1/0to0/0_0 1/0to0/0_1" intLanes=":0/0_0_0 :0/0_1_0 :0/0_6_0 :0/0_3_0 :0/0_4_0 :0/0_7_0" shape="-6.55,6.55 6.55,6.55 6.55,-6.55">
        <request index="0" response="000000" foes="100000" cont="0"/>
        <request index="1" response="000000" foes="100000" cont="0"/>
        <request index="2" response="011000" foes="011000" cont="1"/>
        <request index="3" response="000000" foes="000100" cont="0"/>
        <request index="4" response="000000" foes="000100" cont="0"/>
        <request index="5" response="000011" foes="000011" cont="1"/>
    </junction>
    <junction id="0/1" type="priority" x="0.00" y="33.00" incLanes="0/2to0/1_0 0/2to0/1_1 1/1to0/1_0 1/1to0/1_1 0/0to0/1_0 0/0to0/1_1" intLanes=":0/1_0_0 :0/1_1_0 :0/1_11_0 :0/1_12_0 :0/1_4_0 :0/1_5_0 :0/1_6_0 :0/1_7_0 :0/1_8_0 :0/1_9_0 :0/1_13_0" shape="-6.55,41.05 6.55,41.05 8.05,39.55 8.05,26.45 6.55,24.95 -6.55,24.95">
        <request index="0" response="00000000000" foes="10000100000" cont="0"/>
        <request index="1" response="00000000000" foes="10000100000" cont="0"/>
        <request index="2" response="01110000000" foes="01111100000" cont="1"/>
        <request index="3" response="01100010000" foes="01100010000" cont="1"/>
        <request index="4" response="01100000000" foes="01100001000" cont="0"/>
        <request index="5" response="01100000111" foes="11100000111" cont="0"/>
        <request index="6" response="00010000100" foes="00010000100" cont="0"/>
        <request index="7" response="00000000000" foes="00001000100" cont="0"/>
        <request index="8" response="00000000000" foes="00000111100" cont="0"/>
        <request index="9" response="00000000000" foes="00000111100" cont="0"/>
        <request index="10" response="00000100011" foes="00000100011" cont="1"/>
    </junction>
    <junction id="0/2" type="priority" x="0.00" y="66.00" incLanes="1/2to0/2_0 1/2to0/2_1 0/1to0/2_0 0/1to0/2_1" intLanes=":0/2_0_0 :0/2_1_0 :0/2_6_0 :0/2_3_0 :0/2_4_0 :0/2_7_0" shape="6.55,72.55 6.55,59.45 -6.55,59.45">
        <request index="0" response="000000" foes="100000" cont="0"/>
        <request index="1" response="000000" foes="100000" cont="0"/>
        <request index="2" response="011000" foes="011000" cont="1"/>
        <request index="3" response="000000" foes="000100" cont="0"/>
        <request index="4" response="000000" foes="000100" cont="0"/>
        <request index="5" response="000011" foes="000011" cont="1"/>
    </junction>