<?xml version="1.0" encoding="UTF-8"?>

<!-- generated on 03/13/13 11:10:14 by SUMO netgenerate Version 0.16.0
<?xml version="1.0" encoding="UTF-8"?>

<configuration xmlns:xsi="http://www.w3.org/2001/XMLSchema-instance" xsi:noNamespaceSchemaLocation="http://sumo.sf.net/xsd/netgenerateConfiguration.xsd">

    <grid_network>
        <grid value="true"/>
        <grid.number value="2"/>
        <grid.length value="45"/>
    </grid_network>

    <output>
        <output-file value="C:\Users\Abdalla\Desktop\openTraffic\openTrafficSimulation\output\asd.net.xml"/>
    </output>

    <building_defaults>
        <default.lanenumber value="2"/>
        <default.speed value="23"/>
    </building_defaults>

</configuration>
-->

<net version="0.13" xmlns:xsi="http://www.w3.org/2001/XMLSchema-instance" xsi:noNamespaceSchemaLocation="http://sumo.sf.net/xsd/net_file.xsd">

    <location netOffset="0.00,0.00" convBoundary="0.00,0.00,45.00,45.00" origBoundary="0.00,0.00,45.00,45.00" projParameter="!"/>

    <edge id=":0/0_0" function="internal">
        <lane id=":0/0_0_0" index="0" speed="23.00" length="18.55" shape="-4.95,6.55 -4.23,1.52 -2.07,-2.08 1.52,-4.23 6.55,-4.95"/>
    </edge>
    <edge id=":0/0_1" function="internal">
        <lane id=":0/0_1_0" index="0" speed="23.00" length="13.22" shape="-1.65,6.55 -1.14,2.96 0.40,0.40 2.96,-1.14 6.55,-1.65"/>
    </edge>
    <edge id=":0/0_2" function="internal">
        <lane id=":0/0_2_0" index="0" speed="23.00" length="2.41" shape="-1.65,6.55 -0.83,5.31 -0.00,4.90"/>
    </edge>
    <edge id=":0/0_6" function="internal">
        <lane id=":0/0_6_0" index="0" speed="23.00" length="2.41" shape="-0.00,4.90 0.82,5.31 1.65,6.55"/>
    </edge>
    <edge id=":0/0_3" function="internal">
        <lane id=":0/0_3_0" index="0" speed="23.00" length="2.58" shape="6.55,4.95 5.85,5.05 5.35,5.35 5.05,5.85 4.95,6.55"/>
    </edge>
    <edge id=":0/0_4" function="internal">
        <lane id=":0/0_4_0" index="0" speed="23.00" length="7.90" shape="6.55,1.65 4.41,1.96 2.87,2.88 1.96,4.41 1.65,6.55"/>
    </edge>
    <edge id=":0/0_5" function="internal">
        <lane id=":0/0_5_0" index="0" speed="23.00" length="2.41" shape="6.55,1.65 5.31,0.82 4.90,-0.00"/>
    </edge>
    <edge id=":0/0_7" function="internal">
        <lane id=":0/0_7_0" index="0" speed="23.00" length="2.41" shape="4.90,-0.00 5.31,-0.83 6.55,-1.65"/>
    </edge>
    <edge id=":0/1_0" function="internal">
        <lane id=":0/1_0_0" index="0" speed="23.00" length="18.55" shape="6.55,49.95 1.52,49.23 -2.08,47.08 -4.23,43.48 -4.95,38.45"/>
    </edge>
    <edge id=":0/1_1" function="internal">
        <lane id=":0/1_1_0" index="0" speed="23.00" length="13.22" shape="6.55,46.65 2.96,46.14 0.40,44.60 -1.14,42.04 -1.65,38.45"/>
    </edge>
    <edge id=":0/1_2" function="internal">
        <lane id=":0/1_2_0" index="0" speed="23.00" length="2.41" shape="6.55,46.65 5.31,45.82 4.90,45.00"/>
    </edge>
    <edge id=":0/1_6" function="internal">
        <lane id=":0/1_6_0" index="0" speed="23.00" length="2.41" shape="4.90,45.00 5.31,44.17 6.55,43.35"/>
    </edge>
    <edge id=":0/1_3" function="internal">
        <lane id=":0/1_3_0" index="0" speed="23.00" length="2.58" shape="4.95,38.45 5.05,39.15 5.35,39.65 5.85,39.95 6.55,40.05"/>
    </edge>
    <edge id=":0/1_4" function="internal">
        <lane id=":0/1_4_0" index="0" speed="23.00" length="7.90" shape="1.65,38.45 1.96,40.59 2.88,42.13 4.41,43.04 6.55,43.35"/>
    </edge>
    <edge id=":0/1_5" function="internal">
        <lane id=":0/1_5_0" index="0" speed="23.00" length="2.41" shape="1.65,38.45 0.82,39.69 -0.00,40.10"/>
    </edge>
    <edge id=":0/1_7" function="internal">
        <lane id=":0/1_7_0" index="0" speed="23.00" length="2.41" shape="-0.00,40.10 -0.83,39.69 -1.65,38.45"/>
    </edge>
    <edge id=":1/0_0" function="internal">
        <lane id=":1/0_0_0" index="0" speed="23.00" length="2.58" shape="40.05,6.55 39.95,5.85 39.65,5.35 39.15,5.05 38.45,4.95"/>
    </edge>
    <edge id=":1/0_1" function="internal">
        <lane id=":1/0_1_0" index="0" speed="23.00" length="7.90" shape="43.35,6.55 43.04,4.41 42.13,2.87 40.59,1.96 38.45,1.65"/>
    </edge>
    <edge id=":1/0_2" function="internal">
        <lane id=":1/0_2_0" index="0" speed="23.00" length="2.41" shape="43.35,6.55 44.18,5.31 45.00,4.90"/>
    </edge>
    <edge id=":1/0_6" function="internal">
        <lane id=":1/0_6_0" index="0" speed="23.00" length="2.41" shape="45.00,4.90 45.83,5.31 46.65,6.55"/>
    </edge>
    <edge id=":1/0_3" function="internal">
        <lane id=":1/0_3_0" index="0" speed="23.00" length="18.55" shape="38.45,-4.95 43.48,-4.23 47.08,-2.07 49.23,1.52 49.95,6.55"/>
    </edge>
    <edge id=":1/0_4" function="internal">
        <lane id=":1/0_4_0" index="0" speed="23.00" length="13.22" shape="38.45,-1.65 42.04,-1.14 44.60,0.40 46.14,2.96 46.65,6.55"/>
    </edge>
    <edge id=":1/0_5" function="internal">
        <lane id=":1/0_5_0" index="0" speed="23.00" length="2.41" shape="38.45,-1.65 39.69,-0.83 40.10,-0.00"/>
    </edge>
    <edge id=":1/0_7" function="internal">
        <lane id=":1/0_7_0" index="0" speed="23.00" length="2.41" shape="40.10,-0.00 39.69,0.82 38.45,1.65"/>
    </edge>
    <edge id=":1/1_0" function="internal">
        <lane id=":1/1_0_0" index="0" speed="23.00" length="18.55" shape="49.95,38.45 49.23,43.48 47.08,47.08 43.48,49.23 38.45,49.95"/>
    </edge>
    <edge id=":1/1_1" function="internal">
        <lane id=":1/1_1_0" index="0" speed="23.00" length="13.22" shape="46.65,38.45 46.14,42.04 44.60,44.60 42.04,46.14 38.45,46.65"/>
    </edge>
    <edge id=":1/1_2" function="internal">
        <lane id=":1/1_2_0" index="0" speed="23.00" length="2.41" shape="46.65,38.45 45.82,39.69 45.00,40.10"/>
    </edge>
    <edge id=":1/1_6" function="internal">
        <lane id=":1/1_6_0" index="0" speed="23.00" length="2.41" shape="45.00,40.10 44.17,39.69 43.35,38.45"/>
    </edge>
    <edge id=":1/1_3" function="internal">
        <lane id=":1/1_3_0" index="0" speed="23.00" length="2.58" shape="38.45,40.05 39.15,39.95 39.65,39.65 39.95,39.15 40.05,38.45"/>
    </edge>
    <edge id=":1/1_4" function="internal">
        <lane id=":1/1_4_0" index="0" speed="23.00" length="7.90" shape="38.45,43.35 40.59,43.04 42.13,42.13 43.04,40.59 43.35,38.45"/>
    </edge>
    <edge id=":1/1_5" function="internal">
        <lane id=":1/1_5_0" index="0" speed="23.00" length="2.41" shape="38.45,43.35 39.69,44.18 40.10,45.00"/>
    </edge>
    <edge id=":1/1_7" function="internal">
        <lane id=":1/1_7_0" index="0" speed="23.00" length="2.41" shape="40.10,45.00 39.69,45.83 38.45,46.65"/>
    </edge>

    <edge id="0/0to0/1" from="0/0" to="0/1" priority="-1">
        <lane id="0/0to0/1_0" index="0" speed="23.00" length="31.90" shape="4.95,6.55 4.95,38.45"/>
        <lane id="0/0to0/1_1" index="1" speed="23.00" length="31.90" shape="1.65,6.55 1.65,38.45"/>
    </edge>
    <edge id="0/0to1/0" from="0/0" to="1/0" priority="-1">
        <lane id="0/0to1/0_0" index="0" speed="23.00" length="31.90" shape="6.55,-4.95 38.45,-4.95"/>
        <lane id="0/0to1/0_1" index="1" speed="23.00" length="31.90" shape="6.55,-1.65 38.45,-1.65"/>
    </edge>
    <edge id="0/1to0/0" from="0/1" to="0/0" priority="-1">
        <lane id="0/1to0/0_0" index="0" speed="23.00" length="31.90" shape="-4.95,38.45 -4.95,6.55"/>
        <lane id="0/1to0/0_1" index="1" speed="23.00" length="31.90" shape="-1.65,38.45 -1.65,6.55"/>
    </edge>
    <edge id="0/1to1/1" from="0/1" to="1/1" priority="-1">
        <lane id="0/1to1/1_0" index="0" speed="23.00" length="31.90" shape="6.55,40.05 38.45,40.05"/>
        <lane id="0/1to1/1_1" index="1" speed="23.00" length="31.90" shape="6.55,43.35 38.45,43.35"/>
    </edge>
    <edge id="1/0to0/0" from="1/0" to="0/0" priority="-1">
        <lane id="1/0to0/0_0" index="0" speed="23.00" length="31.90" shape="38.45,4.95 6.55,4.95"/>
        <lane id="1/0to0/0_1" index="1" speed="23.00" length="31.90" shape="38.45,1.65 6.55,1.65"/>
    </edge>
    <edge id="1/0to1/1" from="1/0" to="1/1" priority="-1">
        <lane id="1/0to1/1_0" index="0" speed="23.00" length="31.90" shape="49.95,6.55 49.95,38.45"/>
        <lane id="1/0to1/1_1" index="1" speed="23.00" length="31.90" shape="46.65,6.55 46.65,38.45"/>
    </edge>
    <edge id="1/1to0/1" from="1/1" to="0/1" priority="-1">
        <lane id="1/1to0/1_0" index="0" speed="23.00" length="31.90" shape="38.45,49.95 6.55,49.95"/>
        <lane id="1/1to0/1_1" index="1" speed="23.00" length="31.90" shape="38.45,46.65 6.55,46.65"/>
    </edge>
    <edge id="1/1to1/0" from="1/1" to="1/0" priority="-1">
        <lane id="1/1to1/0_0" index="0" speed="23.00" length="31.90" shape="40.05,38.45 40.05,6.55"/>
        <lane id="1/1to1/0_1" index="1" speed="23.00" length="31.90" shape="43.35,38.45 43.35,6.55"/>
    </edge>

    <junction id="0/0" type="priority" x="0.00" y="0.00" incLanes="0/1to0/0_0 0/1to0/0_1 1/0to0/0_0 1/0to0/0_1" intLanes=":0/0_0_0 :0/0_1_0 :0/0_6_0 :0/0_3_0 :0/0_4_0 :0/0_7_0" shape="-6.55,6.55 6.55,6.55 6.55,-6.55">
        <request index="0" response="000000" foes="100000" cont="0"/>
        <request index="1" response="000000" foes="100000" cont="0"/>
        <request index="2" response="011000" foes="011000" cont="1"/>
        <request index="3" response="000000" foes="000100" cont="0"/>
        <request index="4" response="000000" foes="000100" cont="0"/>
        <request index="5" response="000011" foes="000011" cont="1"/>
    </junction>
    <junction id="0/1" type="priority" x="0.00" y="45.00" incLanes="1/1to0/1_0 1/1to0/1_1 0/0to0/1_0 0/0to0/1_1" intLanes=":0/1_0_0 :0/1_1_0 :0/1_6_0 :0/1_3_0 :0/1_4_0 :0/1_7_0" shape="6.55,51.55 6.55,38.45 -6.55,38.45">
        <request index="0" response="000000" foes="100000" cont="0"/>
        <request index="1" response="000000" foes="100000" cont="0"/>
        <request index="2" response="011000" foes="011000" cont="1"/>
        <request index="3" response="000000" foes="000100" cont="0"/>
        <request index="4" response="000000" foes="000100" cont="0"/>
        <request index="5" response="000011" foes="000011" cont="1"/>
    </junction>
    <junction id="1/0" type="priority" x="45.00" y="0.00" incLanes="1/1to1/0_0 1/1to1/0_1 0/0to1/0_0 0/0to1/0_1" intLanes=":1/0_0_0 :1/0_1_0 :1/0_6_0 :1/0_3_0 :1/0_4_0 :1/0_7_0" shape="38.45,6.55 51.55,6.55 38.45,-6.55 38.45,6.55">
        <request index="0" response="000000" foes="100000" cont="0"/>
        <request index="1" response="000000" foes="100000" cont="0"/>
        <request index="2" response="011000" foes="011000" cont="1"/>
        <request index="3" response="000000" foes="000100" cont="0"/>
        <request index="4" response="000000" foes="000100" cont="0"/>
        <request index="5" response="000011" foes="000011" cont="1"/>
    </junction>
    <junction id="1/1" type="priority" x="45.00" y="45.00" incLanes="1/0to1/1_0 1/0to1/1_1 0/1to1/1_0 0/1to1/1_1" intLanes=":1/1_0_0 :1/1_1_0 :1/1_6_0 :1/1_3_0 :1/1_4_0 :1/1_7_0" shape="51.55,38.45 38.45,38.45 38.45,51.55">
        <request index="0" response="000000" foes="100000" cont="0"/>
        <request index="1" response="000000" foes="100000" cont="0"/>
        <request index="2" response="011000" foes="011000" cont="1"/>
        <request index="3" response="000000" foes="000100" cont="0"/>
        <request index="4" response="000000" foes="000100" cont="0"/>
        <request index="5" response="000011" foes="000011" cont="1"/>
    </junction>

    <junction id=":0/0_6_0" type="internal" x="-0.00" y="4.90" incLanes=":0/0_2_0 1/0to0/0_0 1/0to0/0_1" intLanes=":0/0_3_0 :0/0_4_0"/>
    <junction id=":0/0_7_0" type="internal" x="4.90" y="-0.00" incLanes=":0/0_5_0 0/1to0/0_0 0/1to0/0_1" intLanes=":0/0_0_0 :0/0_1_0"/>
    <junction id=":0/1_6_0" type="internal" x="4.90" y="45.00" incLanes=":0/1_2_0 0/0to0/1_0 0/0to0/1_1" intLanes=":0/1_3_0 :0/1_4_0"/>
    <junction id=":0/1_7_0" type="internal" x="-0.00" y="40.10" incLanes=":0/1_5_0 1/1to0/1_0 1/1to0/1_1" intLanes=":0/1_0_0 :0/1_1_0"/>
    <junction id=":1/0_6_0" type="internal" x="45.00" y="4.90" incLanes=":1/0_2_0 0/0to1/0_0 0/0to1/0_1" intLanes=":1/0_3_0 :1/0_4_0"/>
    <junction id=":1/0_7_0" type="internal" x="40.10" y="-0.00" incLanes=":1/0_5_0 1/1to1/0_0 1/1to1/0_1" intLanes=":1/0_0_0 :1/0_1_0"/>
    <junction id=":1/1_6_0" type="internal" x="45.00" y="40.10" incLanes=":1/1_2_0 0/1to1/1_0 0/1to1/1_1" intLanes=":1/1_3_0 :1/1_4_0"/>
    <junction id=":1/1_7_0" type="internal" x="40.10" y="45.00" incLanes=":1/1_5_0 1/0to1/1_0 1/0to1/1_1" intLanes=":1/1_0_0 :1/1_1_0"/>

    <connection from="0/0to0/1" to="0/1to1/1" fromLane="0" toLane="0" via=":0/1_3_0" dir="r" state="M"/>
    <connection from="0/0to0/1" to="0/1to1/1" fromLane="1" toLane="1" via=":0/1_4_0" dir="r" state="M"/>
    <connection from="0/0to0/1" to="0/1to0/0" fromLane="1" toLane="1" via=":0/1_5_0" dir="t" state="m"/>
    <connection from="0/0to1/0" to="1/0to1/1" fromLane="0" toLane="0" via=":1/0_3_0" dir="l" state="M"/>
    <connection from="0/0to1/0" to="1/0to1/1" fromLane="1" toLane="1" via=":1/0_4_0" dir="l" state="M"/>
    <connection from="0/0to1/0" to="1/0to0/0" fromLane="1" toLane="1" via=":1/0_5_0" dir="t" state="m"/>
    <connection from="0/1to0/0" to="0/0to1/0" fromLane="0" toLane="0" via=":0/0_0_0" dir="l" state="M"/>
    <connection from="0/1to0/0" to="0/0to1/0" fromLane="1" toLane="1" via=":0/0_1_0" dir="l" state="M"/>
    <connection from="0/1to0/0" to="0/0to0/1" fromLane="1" toLane="1" via=":0/0_2_0" dir="t" state="m"/>
    <connection from="0/1to1/1" to="1/1to1/0" fromLane="0" toLane="0" via=":1/1_3_0" dir="r" state="M"/>
    <connection from="0/1to1/1" to="1/1to1/0" fromLane="1" toLane="1" via=":1/1_4_0" dir="r" state="M"/>
    <connection from="0/1to1/1" to="1/1to0/1" fromLane="1" toLane="1" via=":1/1_5_0" dir="t" state="m"/>
    <connection from="1/0to0/0" to="0/0to0/1" fromLane="0" toLane="0" via=":0/0_3_0" dir="r" state="M"/>
    <connection from="1/0to0/0" to="0/0to0/1" fromLane="1" toLane="1" via=":0/0_4_0" dir="r" state="M"/>
    <connection from="1/0to0/0" to="0/0to1/0" fromLane="1" toLane="1" via=":0/0_5_0" dir="t" state="m"/>
    <connection from="1/0to1/1" to="1/1to0/1" fromLane="0" toLane="0" via=":1/1_0_0" dir="l" state="M"/>
    <connection from="1/0to1/1" to="1/1to0/1" fromLane="1" toLane="1" via=":1/1_1_0" dir="l" state="M"/>
    <connection from="1/0to1/1" to="1/1to1/0" fromLane="1" toLane="1" via=":1/1_2_0" dir="t" state="m"/>
    <connection from="1/1to0/1" to="0/1to0/0" fromLane="0" toLane="0" via=":0/1_0_0" dir="l" state="M"/>
    <connection from="1/1to0/1" to="0/1to0/0" fromLane="1" toLane="1" via=":0/1_1_0" dir="l" state="M"/>
    <connection from="1/1to0/1" to="0/1to1/1" fromLane="1" toLane="1" via=":0/1_2_0" dir="t" state="m"/>
    <connection from="1/1to1/0" to="1/0to0/0" fromLane="0" toLane="0" via=":1/0_0_0" dir="r" state="M"/>
    <connection from="1/1to1/0" to="1/0to0/0" fromLane="1" toLane="1" via=":1/0_1_0" dir="r" state="M"/>
    <connection from="1/1to1/0" to="1/0to1/1" fromLane="1" toLane="1" via=":1/0_2_0" dir="t" state="m"/>

    <connection from=":0/0_0" to="0/0to1/0" fromLane="0" toLane="0" dir="s" state="M"/>
    <connection from=":0/0_1" to="0/0to1/0" fromLane="0" toLane="1" dir="s" state="M"/>
    <connection from=":0/0_2" to="0/0to0/1" fromLane="0" toLane="1" via=":0/0_6_0" dir="s" state="M"/>
    <connection from=":0/0_6" to="0/0to0/1" fromLane="0" toLane="1" dir="s" state="M"/>
    <connection from=":0/0_3" to="0/0to0/1" fromLane="0" toLane="0" dir="s" state="M"/>
    <connection from=":0/0_4" to="0/0to0/1" fromLane="0" toLane="1" dir="s" state="M"/>
    <connection from=":0/0_5" to="0/0to1/0" fromLane="0" toLane="1" via=":0/0_7_0" dir="s" state="M"/>
    <connection from=":0/0_7" to="0/0to1/0" fromLane="0" toLane="1" dir="s" state="M"/>
    <connection from=":0/1_0" to="0/1to0/0" fromLane="0" toLane="0" dir="s" state="M"/>
    <connection from=":0/1_1" to="0/1to0/0" fromLane="0" toLane="1" dir="s" state="M"/>
    <connection from=":0/1_2" to="0/1to1/1" fromLane="0" toLane="1" via=":0/1_6_0" dir="s" state="M"/>
    <connection from=":0/1_6" to="0/1to1/1" fromLane="0" toLane="1" dir="s" state="M"/>
    <connection from=":0/1_3" to="0/1to1/1" fromLane="0" toLane="0" dir="s" state="M"/>
    <connection from=":0/1_4" to="0/1to1/1" fromLane="0" toLane="1" dir="s" state="M"/>
    <connection from=":0/1_5" to="0/1to0/0" fromLane="0" toLane="1" via=":0/1_7_0" dir="s" state="M"/>
    <connection from=":0/1_7" to="0/1to0/0" fromLane="0" toLane="1" dir="s" state="M"/>
    <connection from=":1/0_0" to="1/0to0/0" fromLane="0" toLane="0" dir="s" state="M"/>
    <connection from=":1/0_1" to="1/0to0/0" fromLane="0" toLane="1" dir="s" state="M"/>
    <connection from=":1/0_2" to="1/0to1/1" fromLane="0" toLane="1" via=":1/0_6_0" dir="s" state="M"/>
    <connection from=":1/0_6" to="1/0to1/1" fromLane="0" toLane="1" dir="s" state="M"/>
    <connection from=":1/0_3" to="1/0to1/1" fromLane="0" toLane="0" dir="s" state="M"/>
    <connection from=":1/0_4" to="1/0to1/1" fromLane="0" toLane="1" dir="s" state="M"/>
    <connection from=":1/0_5" to="1/0to0/0" fromLane="0" toLane="1" via=":1/0_7_0" dir="s" state="M"/>
    <connection from=":1/0_7" to="1/0to0/0" fromLane="0" toLane="1" dir="s" state="M"/>
    <connection from=":1/1_0" to="1/1to0/1" fromLane="0" toLane="0" dir="s" state="M"/>
    <connection from=":1/1_1" to="1/1to0/1" fromLane="0" toLane="1" dir="s" state="M"/>
    <connection from=":1/1_2" to="1/1to1/0" fromLane="0" toLane="1" via=":1/1_6_0" dir="s" state="M"/>
    <connection from=":1/1_6" to="1/1to1/0" fromLane="0" toLane="1" dir="s" state="M"/>
    <connection from=":1/1_3" to="1/1to1/0" fromLane="0" toLane="0" dir="s" state="M"/>
    <connection from=":1/1_4" to="1/1to1/0" fromLane="0" toLane="1" dir="s" state="M"/>
    <connection from=":1/1_5" to="1/1to0/1" fromLane="0" toLane="1" via=":1/1_7_0" dir="s" state="M"/>
    <connection from=":1/1_7" to="1/1to0/1" fromLane="0" toLane="1" dir="s" state="M"/>

</net>
