<?xml version="1.0" encoding="UTF-8"?>

<!-- generated on 03/12/13 16:52:42 by SUMO netconvert Version 0.16.0
<?xml version="1.0" encoding="UTF-8"?>

<configuration xmlns:xsi="http://www.w3.org/2001/XMLSchema-instance" xsi:noNamespaceSchemaLocation="http://sumo.sf.net/xsd/netconvertConfiguration.xsd">

    <input>
        <sumo-net-file value="G:\Kings\OST\output\asd.net.xml"/>
    </input>

    <output>
        <output-file value="G:\Kings\OST\output\asd.net.xml"/>
    </output>

    <tls_building>
        <tls.set value="0/2,2/1,0/1,2/2,1/2,0/0,1/1,1/0"/>
    </tls_building>

    <processing>
        <no-turnarounds value="true"/>
        <offset.disable-normalization value="true"/>
    </processing>

</configuration>
-->

<net version="0.13" xmlns:xsi="http://www.w3.org/2001/XMLSchema-instance" xsi:noNamespaceSchemaLocation="http://sumo.sf.net/xsd/net_file.xsd">

    <location netOffset="0.00,0.00" convBoundary="0.00,0.00,66.00,66.00" origBoundary="0.00,0.00,66.00,66.00" projParameter="!"/>

    <edge id=":0/0_0" function="internal">
        <lane id=":0/0_0_0" index="0" speed="11.00" length="29.19" shape="-8.25,9.85 -7.12,1.93 -3.73,-3.73 1.93,-7.12 9.85,-8.25"/>
    </edge>
    <edge id=":0/0_1" function="internal">
        <lane id=":0/0_1_0" index="0" speed="11.00" length="23.87" shape="-4.95,9.85 -4.03,3.37 -1.25,-1.25 3.37,-4.02 9.85,-4.95"/>
    </edge>
    <edge id=":0/0_2" function="internal">
        <lane id=":0/0_2_0" index="0" speed="11.00" length="18.55" shape="-1.65,9.85 -0.93,4.82 1.22,1.22 4.82,-0.93 9.85,-1.65"/>
    </edge>
    <edge id=":0/0_3" function="internal">
        <lane id=":0/0_3_0" index="0" speed="11.00" length="2.41" shape="-1.65,9.85 -0.83,8.61 -0.00,8.20"/>
    </edge>
    <edge id=":0/0_8" function="internal">
        <lane id=":0/0_8_0" index="0" speed="11.00" length="2.41" shape="-0.00,8.20 0.82,8.61 1.65,9.85"/>
    </edge>
    <edge id=":0/0_4" function="internal">
        <lane id=":0/0_4_0" index="0" speed="11.00" length="2.58" shape="9.85,8.25 9.15,8.35 8.65,8.65 8.35,9.15 8.25,9.85"/>
    </edge>
    <edge id=":0/0_5" function="internal">
        <lane id=":0/0_5_0" index="0" speed="11.00" length="7.90" shape="9.85,4.95 7.71,5.26 6.17,6.17 5.26,7.71 4.95,9.85"/>
    </edge>
    <edge id=":0/0_6" function="internal">
        <lane id=":0/0_6_0" index="0" speed="11.00" length="13.22" shape="9.85,1.65 6.26,2.16 3.70,3.70 2.16,6.26 1.65,9.85"/>
    </edge>
    <edge id=":0/0_7" function="internal">
        <lane id=":0/0_7_0" index="0" speed="11.00" length="2.41" shape="9.85,1.65 8.61,0.83 8.20,0.00"/>
    </edge>
    <edge id=":0/0_9" function="internal">
        <lane id=":0/0_9_0" index="0" speed="11.00" length="2.41" shape="8.20,0.00 8.61,-0.82 9.85,-1.65"/>
    </edge>
    <edge id=":0/1_0" function="internal">
        <lane id=":0/1_0_0" index="0" speed="11.00" length="22.70" shape="-8.25,44.35 -8.25,37.61 -8.25,33.00 -8.25,28.39 -8.25,21.65"/>
    </edge>
    <edge id=":0/1_1" function="internal">
        <lane id=":0/1_1_0" index="0" speed="11.00" length="22.70" shape="-4.95,44.35 -4.95,37.61 -4.95,33.00 -4.95,28.39 -4.95,21.65"/>
    </edge>
    <edge id=":0/1_2" function="internal">
        <lane id=":0/1_2_0" index="0" speed="11.00" length="22.70" shape="-1.65,44.35 -1.65,37.61 -1.65,33.00 -1.65,28.39 -1.65,21.65"/>
    </edge>
    <edge id=":0/1_3" function="internal">
        <lane id=":0/1_3_0" index="0" speed="11.00" length="12.82" shape="-1.65,44.35 -0.84,37.22 1.60,32.13"/>
    </edge>
    <edge id=":0/1_15" function="internal">
        <lane id=":0/1_15_0" index="0" speed="11.00" length="10.86" shape="1.60,32.13 5.66,29.07 11.35,28.05"/>
    </edge>
    <edge id=":0/1_4" function="internal">
        <lane id=":0/1_4_0" index="0" speed="11.00" length="10.48" shape="-1.65,44.35 -0.84,38.66 1.60,34.60"/>
    </edge>
    <edge id=":0/1_16" function="internal">
        <lane id=":0/1_16_0" index="0" speed="11.00" length="10.48" shape="1.60,34.60 5.66,32.16 11.35,31.35"/>
    </edge>
    <edge id=":0/1_5" function="internal">
        <lane id=":0/1_5_0" index="0" speed="11.00" length="2.41" shape="-1.65,44.35 -0.83,43.11 -0.00,42.70"/>
    </edge>
    <edge id=":0/1_17" function="internal">
        <lane id=":0/1_17_0" index="0" speed="11.00" length="2.41" shape="-0.00,42.70 0.82,43.11 1.65,44.35"/>
    </edge>
    <edge id=":0/1_6" function="internal">
        <lane id=":0/1_6_0" index="0" speed="11.00" length="5.00" shape="11.35,41.25 9.99,41.44 9.02,42.02 8.44,42.99 8.25,44.35"/>
    </edge>
    <edge id=":0/1_7" function="internal">
        <lane id=":0/1_7_0" index="0" speed="11.00" length="3.13" shape="11.35,37.95 8.25,37.51"/>
    </edge>
    <edge id=":0/1_18" function="internal">
        <lane id=":0/1_18_0" index="0" speed="11.00" length="23.16" shape="8.25,37.51 4.22,36.93 -0.88,33.88 -3.93,28.78 -4.95,21.65"/>
    </edge>
    <edge id=":0/1_8" function="internal">
        <lane id=":0/1_8_0" index="0" speed="11.00" length="3.13" shape="11.35,34.65 8.25,34.21"/>
    </edge>
    <edge id=":0/1_19" function="internal">
        <lane id=":0/1_19_0" index="0" speed="11.00" length="17.83" shape="8.25,34.21 5.66,33.84 1.60,31.40 -0.84,27.34 -1.65,21.65"/>
    </edge>
    <edge id=":0/1_9" function="internal">
        <lane id=":0/1_9_0" index="0" speed="11.00" length="2.41" shape="11.35,34.65 10.11,33.82 9.70,33.00"/>
    </edge>
    <edge id=":0/1_20" function="internal">
        <lane id=":0/1_20_0" index="0" speed="11.00" length="2.41" shape="9.70,33.00 10.11,32.18 11.35,31.35"/>
    </edge>
    <edge id=":0/1_10" function="internal">
        <lane id=":0/1_10_0" index="0" speed="11.00" length="5.00" shape="8.25,21.65 8.44,23.01 9.02,23.98 9.99,24.56 11.35,24.75"/>
    </edge>
    <edge id=":0/1_11" function="internal">
        <lane id=":0/1_11_0" index="0" speed="11.00" length="22.70" shape="8.25,21.65 8.25,28.39 8.25,33.00 8.25,37.61 8.25,44.35"/>
    </edge>
    <edge id=":0/1_12" function="internal">
        <lane id=":0/1_12_0" index="0" speed="11.00" length="22.70" shape="4.95,21.65 4.95,28.39 4.95,33.00 4.95,37.61 4.95,44.35"/>
    </edge>
    <edge id=":0/1_13" function="internal">
        <lane id=":0/1_13_0" index="0" speed="11.00" length="22.70" shape="1.65,21.65 1.65,28.39 1.65,33.00 1.65,37.61 1.65,44.35"/>
    </edge>
    <edge id=":0/1_14" function="internal">
        <lane id=":0/1_14_0" index="0" speed="11.00" length="2.41" shape="1.65,21.65 0.83,22.89 0.00,23.30"/>
    </edge>
    <edge id=":0/1_21" function="internal">
        <lane id=":0/1_21_0" index="0" speed="11.00" length="2.41" shape="0.00,23.30 -0.82,22.89 -1.65,21.65"/>
    </edge>
    <edge id=":0/2_0" function="internal">
        <lane id=":0/2_0_0" index="0" speed="11.00" length="29.19" shape="9.85,74.25 1.93,73.12 -3.73,69.72 -7.12,64.07 -8.25,56.15"/>
    </edge>
    <edge id=":0/2_1" function="internal">
        <lane id=":0/2_1_0" index="0" speed="11.00" length="23.87" shape="9.85,70.95 3.37,70.03 -1.25,67.25 -4.02,62.63 -4.95,56.15"/>
    </edge>
    <edge id=":0/2_2" function="internal">
        <lane id=":0/2_2_0" index="0" speed="11.00" length="18.55" shape="9.85,67.65 4.82,66.93 1.22,64.78 -0.93,61.18 -1.65,56.15"/>
    </edge>
    <edge id=":0/2_3" function="internal">
        <lane id=":0/2_3_0" index="0" speed="11.00" length="2.41" shape="9.85,67.65 8.61,66.83 8.20,66.00"/>
    </edge>
    <edge id=":0/2_8" function="internal">
        <lane id=":0/2_8_0" index="0" speed="11.00" length="2.41" shape="8.20,66.00 8.61,65.17 9.85,64.35"/>
    </edge>
    <edge id=":0/2_4" function="internal">
        <lane id=":0/2_4_0" index="0" speed="11.00" length="2.58" shape="8.25,56.15 8.35,56.85 8.65,57.35 9.15,57.65 9.85,57.75"/>
    </edge>
    <edge id=":0/2_5" function="internal">
        <lane id=":0/2_5_0" index="0" speed="11.00" length="7.90" shape="4.95,56.15 5.26,58.29 6.17,59.83 7.71,60.74 9.85,61.05"/>
    </edge>
    <edge id=":0/2_6" function="internal">
        <lane id=":0/2_6_0" index="0" speed="11.00" length="13.22" shape="1.65,56.15 2.16,59.74 3.70,62.30 6.26,63.84 9.85,64.35"/>
    </edge>
    <edge id=":0/2_7" function="internal">
        <lane id=":0/2_7_0" index="0" speed="11.00" length="2.41" shape="1.65,56.15 0.83,57.39 0.00,57.80"/>
    </edge>
    <edge id=":0/2_9" function="internal">
        <lane id=":0/2_9_0" index="0" speed="11.00" length="2.41" shape="0.00,57.80 -0.82,57.39 -1.65,56.15"/>
    </edge>
    <edge id=":1/0_0" function="internal">
        <lane id=":1/0_0_0" index="0" speed="11.00" length="5.00" shape="24.75,11.35 24.56,9.99 23.98,9.02 23.01,8.44 21.65,8.25"/>
    </edge>
    <edge id=":1/0_1" function="internal">
        <lane id=":1/0_1_0" index="0" speed="11.00" length="3.13" shape="28.05,11.35 28.49,8.25"/>
    </edge>
    <edge id=":1/0_15" function="internal">
        <lane id=":1/0_15_0" index="0" speed="11.00" length="23.16" shape="28.49,8.25 29.07,4.22 32.13,-0.88 37.22,-3.93 44.35,-4.95"/>
    </edge>
    <edge id=":1/0_2" function="internal">
        <lane id=":1/0_2_0" index="0" speed="11.00" length="3.13" shape="31.35,11.35 31.79,8.25"/>
    </edge>
    <edge id=":1/0_16" function="internal">
        <lane id=":1/0_16_0" index="0" speed="11.00" length="17.83" shape="31.79,8.25 32.16,5.66 34.60,1.60 38.66,-0.84 44.35,-1.65"/>
    </edge>
    <edge id=":1/0_3" function="internal">
        <lane id=":1/0_3_0" index="0" speed="11.00" length="2.41" shape="31.35,11.35 32.18,10.11 33.00,9.70"/>
    </edge>
    <edge id=":1/0_17" function="internal">
        <lane id=":1/0_17_0" index="0" speed="11.00" length="2.41" shape="33.00,9.70 33.82,10.11 34.65,11.35"/>
    </edge>
    <edge id=":1/0_4" function="internal">
        <lane id=":1/0_4_0" index="0" speed="11.00" length="5.00" shape="44.35,8.25 42.99,8.44 42.02,9.02 41.44,9.99 41.25,11.35"/>
    </edge>
    <edge id=":1/0_5" function="internal">
        <lane id=":1/0_5_0" index="0" speed="11.00" length="22.70" shape="44.35,8.25 37.61,8.25 33.00,8.25 28.39,8.25 21.65,8.25"/>
    </edge>
    <edge id=":1/0_6" function="internal">
        <lane id=":1/0_6_0" index="0" speed="11.00" length="22.70" shape="44.35,4.95 37.61,4.95 33.00,4.95 28.39,4.95 21.65,4.95"/>
    </edge>
    <edge id=":1/0_7" function="internal">
        <lane id=":1/0_7_0" index="0" speed="11.00" length="22.70" shape="44.35,1.65 37.61,1.65 33.00,1.65 28.39,1.65 21.65,1.65"/>
    </edge>
    <edge id=":1/0_8" function="internal">
        <lane id=":1/0_8_0" index="0" speed="11.00" length="2.41" shape="44.35,1.65 43.11,0.83 42.70,0.00"/>
    </edge>
    <edge id=":1/0_18" function="internal">
        <lane id=":1/0_18_0" index="0" speed="11.00" length="2.41" shape="42.70,0.00 43.11,-0.82 44.35,-1.65"/>
    </edge>
    <edge id=":1/0_9" function="internal">
        <lane id=":1/0_9_0" index="0" speed="11.00" length="22.70" shape="21.65,-8.25 28.39,-8.25 33.00,-8.25 37.61,-8.25 44.35,-8.25"/>
    </edge>
    <edge id=":1/0_10" function="internal">
        <lane id=":1/0_10_0" index="0" speed="11.00" length="22.70" shape="21.65,-4.95 28.39,-4.95 33.00,-4.95 37.61,-4.95 44.35,-4.95"/>
    </edge>
    <edge id=":1/0_11" function="internal">
        <lane id=":1/0_11_0" index="0" speed="11.00" length="22.70" shape="21.65,-1.65 28.39,-1.65 33.00,-1.65 37.61,-1.65 44.35,-1.65"/>
    </edge>
    <edge id=":1/0_12" function="internal">
        <lane id=":1/0_12_0" index="0" speed="11.00" length="12.82" shape="21.65,-1.65 28.78,-0.84 33.88,1.60"/>
    </edge>
    <edge id=":1/0_19" function="internal">
        <lane id=":1/0_19_0" index="0" speed="11.00" length="10.86" shape="33.88,1.60 36.93,5.66 37.95,11.35"/>
    </edge>
    <edge id=":1/0_13" function="internal">
        <lane id=":1/0_13_0" index="0" speed="11.00" length="10.48" shape="21.65,-1.65 27.34,-0.84 31.40,1.60"/>
    </edge>
    <edge id=":1/0_20" function="internal">
        <lane id=":1/0_20_0" index="0" speed="11.00" length="10.48" shape="31.40,1.60 33.84,5.66 34.65,11.35"/>
    </edge>
    <edge id=":1/0_14" function="internal">
        <lane id=":1/0_14_0" index="0" speed="11.00" length="2.41" shape="21.65,-1.65 22.89,-0.83 23.30,-0.00"/>
    </edge>
    <edge id=":1/0_21" function="internal">
        <lane id=":1/0_21_0" index="0" speed="11.00" length="2.41" shape="23.30,-0.00 22.89,0.82 21.65,1.65"/>
    </edge>
    <edge id=":1/1_0" function="internal">
        <lane id=":1/1_0_0" index="0" speed="11.00" length="5.00" shape="24.75,44.35 24.56,42.99 23.98,42.02 23.01,41.44 21.65,41.25"/>
    </edge>
    <edge id=":1/1_1" function="internal">
        <lane id=":1/1_1_0" index="0" speed="11.00" length="22.70" shape="24.75,44.35 24.75,37.61 24.75,33.00 24.75,28.39 24.75,21.65"/>
    </edge>
    <edge id=":1/1_2" function="internal">
        <lane id=":1/1_2_0" index="0" speed="11.00" length="22.70" shape="28.05,44.35 28.05,37.61 28.05,33.00 28.05,28.39 28.05,21.65"/>
    </edge>
    <edge id=":1/1_3" function="internal">
        <lane id=":1/1_3_0" index="0" speed="11.00" length="22.70" shape="31.35,44.35 31.35,37.61 31.35,33.00 31.35,28.39 31.35,21.65"/>
    </edge>
    <edge id=":1/1_4" function="internal">
        <lane id=":1/1_4_0" index="0" speed="11.00" length="6.58" shape="31.35,44.35 32.16,38.66 32.59,37.95"/>
    </edge>
    <edge id=":1/1_20" function="internal">
        <lane id=":1/1_20_0" index="0" speed="11.00" length="14.39" shape="32.59,37.95 34.60,34.60 38.66,32.16 44.35,31.35"/>
    </edge>
    <edge id=":1/1_5" function="internal">
        <lane id=":1/1_5_0" index="0" speed="11.00" length="2.41" shape="31.35,44.35 32.18,43.11 33.00,42.70"/>
    </edge>
    <edge id=":1/1_21" function="internal">
        <lane id=":1/1_21_0" index="0" speed="11.00" length="2.41" shape="33.00,42.70 33.82,43.11 34.65,44.35"/>
    </edge>
    <edge id=":1/1_6" function="internal">
        <lane id=":1/1_6_0" index="0" speed="11.00" length="5.00" shape="44.35,41.25 42.99,41.44 42.02,42.02 41.44,42.99 41.25,44.35"/>
    </edge>
    <edge id=":1/1_7" function="internal">
        <lane id=":1/1_7_0" index="0" speed="11.00" length="22.70" shape="44.35,37.95 37.61,37.95 33.00,37.95 28.39,37.95 21.65,37.95"/>
    </edge>
    <edge id=":1/1_8" function="internal">
        <lane id=":1/1_8_0" index="0" speed="11.00" length="3.13" shape="44.35,34.65 41.25,34.21"/>
    </edge>
    <edge id=":1/1_22" function="internal">
        <lane id=":1/1_22_0" index="0" speed="11.00" length="17.83" shape="41.25,34.21 38.66,33.84 34.60,31.40 32.16,27.34 31.35,21.65"/>
    </edge>
    <edge id=":1/1_9" function="internal">
        <lane id=":1/1_9_0" index="0" speed="11.00" length="2.41" shape="44.35,34.65 43.11,33.82 42.70,33.00"/>
    </edge>
    <edge id=":1/1_23" function="internal">
        <lane id=":1/1_23_0" index="0" speed="11.00" length="2.41" shape="42.70,33.00 43.11,32.18 44.35,31.35"/>
    </edge>
    <edge id=":1/1_10" function="internal">
        <lane id=":1/1_10_0" index="0" speed="11.00" length="5.00" shape="41.25,21.65 41.44,23.01 42.02,23.98 42.99,24.56 44.35,24.75"/>
    </edge>
    <edge id=":1/1_11" function="internal">
        <lane id=":1/1_11_0" index="0" speed="11.00" length="22.70" shape="41.25,21.65 41.25,28.39 41.25,33.00 41.25,37.61 41.25,44.35"/>
    </edge>
    <edge id=":1/1_12" function="internal">
        <lane id=":1/1_12_0" index="0" speed="11.00" length="22.70" shape="37.95,21.65 37.95,28.39 37.95,33.00 37.95,37.61 37.95,44.35"/>
    </edge>
    <edge id=":1/1_13" function="internal">
        <lane id=":1/1_13_0" index="0" speed="11.00" length="22.70" shape="34.65,21.65 34.65,28.39 34.65,33.00 34.65,37.61 34.65,44.35"/>
    </edge>
    <edge id=":1/1_14" function="internal">
        <lane id=":1/1_14_0" index="0" speed="11.00" length="6.58" shape="34.65,21.65 33.84,27.34 33.41,28.05"/>
    </edge>
    <edge id=":1/1_24" function="internal">
        <lane id=":1/1_24_0" index="0" speed="11.00" length="14.39" shape="33.41,28.05 31.40,31.40 27.34,33.84 21.65,34.65"/>
    </edge>
    <edge id=":1/1_15" function="internal">
        <lane id=":1/1_15_0" index="0" speed="11.00" length="2.41" shape="34.65,21.65 33.82,22.89 33.00,23.30"/>
    </edge>
    <edge id=":1/1_25" function="internal">
        <lane id=":1/1_25_0" index="0" speed="11.00" length="2.41" shape="33.00,23.30 32.18,22.89 31.35,21.65"/>
    </edge>
    <edge id=":1/1_16" function="internal">
        <lane id=":1/1_16_0" index="0" speed="11.00" length="5.00" shape="21.65,24.75 23.01,24.56 23.98,23.98 24.56,23.01 24.75,21.65"/>
    </edge>
    <edge id=":1/1_17" function="internal">
        <lane id=":1/1_17_0" index="0" speed="11.00" length="22.70" shape="21.65,28.05 28.39,28.05 33.00,28.05 37.61,28.05 44.35,28.05"/>
    </edge>
    <edge id=":1/1_18" function="internal">
        <lane id=":1/1_18_0" index="0" speed="11.00" length="3.13" shape="21.65,31.35 24.75,31.79"/>
    </edge>
    <edge id=":1/1_26" function="internal">
        <lane id=":1/1_26_0" index="0" speed="11.00" length="17.83" shape="24.75,31.79 27.34,32.16 31.40,34.60 33.84,38.66 34.65,44.35"/>
    </edge>
    <edge id=":1/1_19" function="internal">
        <lane id=":1/1_19_0" index="0" speed="11.00" length="2.41" shape="21.65,31.35 22.89,32.18 23.30,33.00"/>
    </edge>
    <edge id=":1/1_27" function="internal">
        <lane id=":1/1_27_0" index="0" speed="11.00" length="2.41" shape="23.30,33.00 22.89,33.82 21.65,34.65"/>
    </edge>
    <edge id=":1/2_0" function="internal">
        <lane id=":1/2_0_0" index="0" speed="11.00" length="22.70" shape="44.35,74.25 37.61,74.25 33.00,74.25 28.39,74.25 21.65,74.25"/>
    </edge>
    <edge id=":1/2_1" function="internal">
        <lane id=":1/2_1_0" index="0" speed="11.00" length="22.70" shape="44.35,70.95 37.61,70.95 33.00,70.95 28.39,70.95 21.65,70.95"/>
    </edge>
    <edge id=":1/2_2" function="internal">
        <lane id=":1/2_2_0" index="0" speed="11.00" length="22.70" shape="44.35,67.65 37.61,67.65 33.00,67.65 28.39,67.65 21.65,67.65"/>
    </edge>
    <edge id=":1/2_3" function="internal">
        <lane id=":1/2_3_0" index="0" speed="11.00" length="12.82" shape="44.35,67.65 37.22,66.84 32.13,64.40"/>
    </edge>
    <edge id=":1/2_15" function="internal">
        <lane id=":1/2_15_0" index="0" speed="11.00" length="10.86" shape="32.13,64.40 29.07,60.34 28.05,54.65"/>
    </edge>
    <edge id=":1/2_4" function="internal">
        <lane id=":1/2_4_0" index="0" speed="11.00" length="10.48" shape="44.35,67.65 38.66,66.84 34.60,64.40"/>
    </edge>
    <edge id=":1/2_16" function="internal">
        <lane id=":1/2_16_0" index="0" speed="11.00" length="10.48" shape="34.60,64.40 32.16,60.34 31.35,54.65"/>
    </edge>
    <edge id=":1/2_5" function="internal">
        <lane id=":1/2_5_0" index="0" speed="11.00" length="2.41" shape="44.35,67.65 43.11,66.83 42.70,66.00"/>
    </edge>
    <edge id=":1/2_17" function="internal">
        <lane id=":1/2_17_0" index="0" speed="11.00" length="2.41" shape="42.70,66.00 43.11,65.17 44.35,64.35"/>
    </edge>
    <edge id=":1/2_6" function="internal">
        <lane id=":1/2_6_0" index="0" speed="11.00" length="5.00" shape="41.25,54.65 41.44,56.01 42.02,56.98 42.99,57.56 44.35,57.75"/>
    </edge>
    <edge id=":1/2_7" function="internal">
        <lane id=":1/2_7_0" index="0" speed="11.00" length="3.13" shape="37.95,54.65 37.51,57.75"/>
    </edge>
    <edge id=":1/2_18" function="internal">
        <lane id=":1/2_18_0" index="0" speed="11.00" length="23.16" shape="37.51,57.75 36.93,61.78 33.88,66.88 28.78,69.93 21.65,70.95"/>
    </edge>
    <edge id=":1/2_8" function="internal">
        <lane id=":1/2_8_0" index="0" speed="11.00" length="3.13" shape="34.65,54.65 34.21,57.75"/>
    </edge>
    <edge id=":1/2_19" function="internal">
        <lane id=":1/2_19_0" index="0" speed="11.00" length="17.83" shape="34.21,57.75 33.84,60.34 31.40,64.40 27.34,66.84 21.65,67.65"/>
    </edge>
    <edge id=":1/2_9" function="internal">
        <lane id=":1/2_9_0" index="0" speed="11.00" length="2.41" shape="34.65,54.65 33.82,55.89 33.00,56.30"/>
    </edge>
    <edge id=":1/2_20" function="internal">
        <lane id=":1/2_20_0" index="0" speed="11.00" length="2.41" shape="33.00,56.30 32.18,55.89 31.35,54.65"/>
    </edge>
    <edge id=":1/2_10" function="internal">
        <lane id=":1/2_10_0" index="0" speed="11.00" length="5.00" shape="21.65,57.75 23.01,57.56 23.98,56.98 24.56,56.01 24.75,54.65"/>
    </edge>
    <edge id=":1/2_11" function="internal">
        <lane id=":1/2_11_0" index="0" speed="11.00" length="22.70" shape="21.65,57.75 28.39,57.75 33.00,57.75 37.61,57.75 44.35,57.75"/>
    </edge>
    <edge id=":1/2_12" function="internal">
        <lane id=":1/2_12_0" index="0" speed="11.00" length="22.70" shape="21.65,61.05 28.39,61.05 33.00,61.05 37.61,61.05 44.35,61.05"/>
    </edge>
    <edge id=":1/2_13" function="internal">
        <lane id=":1/2_13_0" index="0" speed="11.00" length="22.70" shape="21.65,64.35 28.39,64.35 33.00,64.35 37.61,64.35 44.35,64.35"/>
    </edge>
    <edge id=":1/2_14" function="internal">
        <lane id=":1/2_14_0" index="0" speed="11.00" length="2.41" shape="21.65,64.35 22.89,65.17 23.30,66.00"/>
    </edge>
    <edge id=":1/2_21" function="internal">
        <lane id=":1/2_21_0" index="0" speed="11.00" length="2.41" shape="23.30,66.00 22.89,66.83 21.65,67.65"/>
    </edge>
    <edge id=":2/0_0" function="internal">
        <lane id=":2/0_0_0" index="0" speed="11.00" length="2.58" shape="57.75,9.85 57.65,9.15 57.35,8.65 56.85,8.35 56.15,8.25"/>
    </edge>
    <edge id=":2/0_1" function="internal">
        <lane id=":2/0_1_0" index="0" speed="11.00" length="7.90" shape="61.05,9.85 60.74,7.71 59.82,6.17 58.29,5.26 56.15,4.95"/>
    </edge>
    <edge id=":2/0_2" function="internal">
        <lane id=":2/0_2_0" index="0" speed="11.00" length="13.22" shape="64.35,9.85 63.84,6.26 62.30,3.70 59.74,2.16 56.15,1.65"/>
    </edge>
    <edge id=":2/0_3" function="internal">
        <lane id=":2/0_3_0" index="0" speed="11.00" length="2.41" shape="64.35,9.85 65.17,8.61 66.00,8.20"/>
    </edge>
    <edge id=":2/0_8" function="internal">
        <lane id=":2/0_8_0" index="0" speed="11.00" length="2.41" shape="66.00,8.20 66.83,8.61 67.65,9.85"/>
    </edge>
    <edge id=":2/0_4" function="internal">
        <lane id=":2/0_4_0" index="0" speed="11.00" length="29.19" shape="56.15,-8.25 64.07,-7.12 69.72,-3.73 73.12,1.93 74.25,9.85"/>
    </edge>
    <edge id=":2/0_5" function="internal">
        <lane id=":2/0_5_0" index="0" speed="11.00" length="23.87" shape="56.15,-4.95 62.63,-4.03 67.25,-1.25 70.03,3.37 70.95,9.85"/>
    </edge>
    <edge id=":2/0_6" function="internal">
        <lane id=":2/0_6_0" index="0" speed="11.00" length="18.55" shape="56.15,-1.65 61.18,-0.93 64.78,1.22 66.93,4.82 67.65,9.85"/>
    </edge>
    <edge id=":2/0_7" function="internal">
        <lane id=":2/0_7_0" index="0" speed="11.00" length="2.41" shape="56.15,-1.65 57.39,-0.83 57.80,-0.00"/>
    </edge>
    <edge id=":2/0_9" function="internal">
        <lane id=":2/0_9_0" index="0" speed="11.00" length="2.41" shape="57.80,-0.00 57.39,0.82 56.15,1.65"/>
    </edge>
    <edge id=":2/1_0" function="internal">
        <lane id=":2/1_0_0" index="0" speed="11.00" length="5.00" shape="57.75,44.35 57.56,42.99 56.98,42.02 56.01,41.44 54.65,41.25"/>
    </edge>
    <edge id=":2/1_1" function="internal">
        <lane id=":2/1_1_0" index="0" speed="11.00" length="22.70" shape="57.75,44.35 57.75,37.61 57.75,33.00 57.75,28.39 57.75,21.65"/>
    </edge>
    <edge id=":2/1_2" function="internal">
        <lane id=":2/1_2_0" index="0" speed="11.00" length="22.70" shape="61.05,44.35 61.05,37.61 61.05,33.00 61.05,28.39 61.05,21.65"/>
    </edge>
    <edge id=":2/1_3" function="internal">
        <lane id=":2/1_3_0" index="0" speed="11.00" length="22.70" shape="64.35,44.35 64.35,37.61 64.35,33.00 64.35,28.39 64.35,21.65"/>
    </edge>
    <edge id=":2/1_4" function="internal">
        <lane id=":2/1_4_0" index="0" speed="11.00" length="2.41" shape="64.35,44.35 65.17,43.11 66.00,42.70"/>
    </edge>
    <edge id=":2/1_15" function="internal">
        <lane id=":2/1_15_0" index="0" speed="11.00" length="2.41" shape="66.00,42.70 66.83,43.11 67.65,44.35"/>
    </edge>
    <edge id=":2/1_5" function="internal">
        <lane id=":2/1_5_0" index="0" speed="11.00" length="22.70" shape="74.25,21.65 74.25,28.39 74.25,33.00 74.25,37.61 74.25,44.35"/>
    </edge>
    <edge id=":2/1_6" function="internal">
        <lane id=":2/1_6_0" index="0" speed="11.00" length="22.70" shape="70.95,21.65 70.95,28.39 70.95,33.00 70.95,37.61 70.95,44.35"/>
    </edge>
    <edge id=":2/1_7" function="internal">
        <lane id=":2/1_7_0" index="0" speed="11.00" length="22.70" shape="67.65,21.65 67.65,28.39 67.65,33.00 67.65,37.61 67.65,44.35"/>
    </edge>
    <edge id=":2/1_8" function="internal">
        <lane id=":2/1_8_0" index="0" speed="11.00" length="12.82" shape="67.65,21.65 66.84,28.78 64.40,33.88"/>
    </edge>
    <edge id=":2/1_16" function="internal">
        <lane id=":2/1_16_0" index="0" speed="11.00" length="10.86" shape="64.40,33.88 60.34,36.93 54.65,37.95"/>
    </edge>
    <edge id=":2/1_9" function="internal">
        <lane id=":2/1_9_0" index="0" speed="11.00" length="10.48" shape="67.65,21.65 66.84,27.34 64.40,31.40"/>
    </edge>
    <edge id=":2/1_17" function="internal">
        <lane id=":2/1_17_0" index="0" speed="11.00" length="10.48" shape="64.40,31.40 60.34,33.84 54.65,34.65"/>
    </edge>
    <edge id=":2/1_10" function="internal">
        <lane id=":2/1_10_0" index="0" speed="11.00" length="2.41" shape="67.65,21.65 66.83,22.89 66.00,23.30"/>
    </edge>
    <edge id=":2/1_18" function="internal">
        <lane id=":2/1_18_0" index="0" speed="11.00" length="2.41" shape="66.00,23.30 65.17,22.89 64.35,21.65"/>
    </edge>
    <edge id=":2/1_11" function="internal">
        <lane id=":2/1_11_0" index="0" speed="11.00" length="5.00" shape="54.65,24.75 56.01,24.56 56.98,23.98 57.56,23.01 57.75,21.65"/>
    </edge>
    <edge id=":2/1_12" function="internal">
        <lane id=":2/1_12_0" index="0" speed="11.00" length="3.13" shape="54.65,28.05 57.75,28.49"/>
    </edge>
    <edge id=":2/1_19" function="internal">
        <lane id=":2/1_19_0" index="0" speed="11.00" length="23.16" shape="57.75,28.49 61.78,29.07 66.88,32.13 69.93,37.22 70.95,44.35"/>
    </edge>
    <edge id=":2/1_13" function="internal">
        <lane id=":2/1_13_0" index="0" speed="11.00" length="3.13" shape="54.65,31.35 57.75,31.79"/>
    </edge>
    <edge id=":2/1_20" function="internal">
        <lane id=":2/1_20_0" index="0" speed="11.00" length="17.83" shape="57.75,31.79 60.34,32.16 64.40,34.60 66.84,38.66 67.65,44.35"/>
    </edge>
    <edge id=":2/1_14" function="internal">
        <lane id=":2/1_14_0" index="0" speed="11.00" length="2.41" shape="54.65,31.35 55.89,32.18 56.30,33.00"/>
    </edge>
    <edge id=":2/1_21" function="internal">
        <lane id=":2/1_21_0" index="0" speed="11.00" length="2.41" shape="56.30,33.00 55.89,33.82 54.65,34.65"/>
    </edge>
    <edge id=":2/2_0" function="internal">
        <lane id=":2/2_0_0" index="0" speed="11.00" length="29.19" shape="74.25,56.15 73.12,64.07 69.72,69.72 64.07,73.12 56.15,74.25"/>
    </edge>
    <edge id=":2/2_1" function="internal">
        <lane id=":2/2_1_0" index="0" speed="11.00" length="23.87" shape="70.95,56.15 70.03,62.63 67.25,67.25 62.63,70.03 56.15,70.95"/>
    </edge>
    <edge id=":2/2_2" function="internal">
        <lane id=":2/2_2_0" index="0" speed="11.00" length="18.55" shape="67.65,56.15 66.93,61.18 64.78,64.78 61.18,66.93 56.15,67.65"/>
    </edge>
    <edge id=":2/2_3" function="internal">
        <lane id=":2/2_3_0" index="0" speed="11.00" length="2.41" shape="67.65,56.15 66.83,57.39 66.00,57.80"/>
    </edge>
    <edge id=":2/2_8" function="internal">
        <lane id=":2/2_8_0" index="0" speed="11.00" length="2.41" shape="66.00,57.80 65.17,57.39 64.35,56.15"/>
    </edge>
    <edge id=":2/2_4" function="internal">
        <lane id=":2/2_4_0" index="0" speed="11.00" length="2.58" shape="56.15,57.75 56.85,57.65 57.35,57.35 57.65,56.85 57.75,56.15"/>
    </edge>
    <edge id=":2/2_5" function="internal">
        <lane id=":2/2_5_0" index="0" speed="11.00" length="7.90" shape="56.15,61.05 58.29,60.74 59.83,59.82 60.74,58.29 61.05,56.15"/>
    </edge>
    <edge id=":2/2_6" function="internal">
        <lane id=":2/2_6_0" index="0" speed="11.00" length="13.22" shape="56.15,64.35 59.74,63.84 62.30,62.30 63.84,59.74 64.35,56.15"/>
    </edge>
    <edge id=":2/2_7" function="internal">
        <lane id=":2/2_7_0" index="0" speed="11.00" length="2.41" shape="56.15,64.35 57.39,65.17 57.80,66.00"/>
    </edge>
    <edge id=":2/2_9" function="internal">
        <lane id=":2/2_9_0" index="0" speed="11.00" length="2.41" shape="57.80,66.00 57.39,66.83 56.15,67.65"/>
    </edge>

    <edge id="0/0to0/1" from="0/0" to="0/1" priority="-1">
        <lane id="0/0to0/1_0" index="0" speed="11.00" length="11.80" shape="8.25,9.85 8.25,21.65"/>
        <lane id="0/0to0/1_1" index="1" speed="11.00" length="11.80" shape="4.95,9.85 4.95,21.65"/>
        <lane id="0/0to0/1_2" index="2" speed="11.00" length="11.80" shape="1.65,9.85 1.65,21.65"/>
    </edge>
    <edge id="0/0to1/0" from="0/0" to="1/0" priority="-1">
        <lane id="0/0to1/0_0" index="0" speed="11.00" length="11.80" shape="9.85,-8.25 21.65,-8.25"/>
        <lane id="0/0to1/0_1" index="1" speed="11.00" length="11.80" shape="9.85,-4.95 21.65,-4.95"/>
        <lane id="0/0to1/0_2" index="2" speed="11.00" length="11.80" shape="9.85,-1.65 21.65,-1.65"/>
    </edge>
    <edge id="0/1to0/0" from="0/1" to="0/0" priority="-1">
        <lane id="0/1to0/0_0" index="0" speed="11.00" length="11.80" shape="-8.25,21.65 -8.25,9.85"/>
        <lane id="0/1to0/0_1" index="1" speed="11.00" length="11.80" shape="-4.95,21.65 -4.95,9.85"/>
        <lane id="0/1to0/0_2" index="2" speed="11.00" length="11.80" shape="-1.65,21.65 -1.65,9.85"/>
    </edge>